version 3
run General-0-20251207-09:22:38-896
attr configname General
attr datetime 20251207-09:22:38
attr datetimef 20251207-092238
attr experiment General
attr inifile omnetpp.ini
attr iterationvars ""
attr iterationvarsd ""
attr iterationvarsf ""
attr measurement ""
attr network simulations.HCCNetwork
attr processid 896
attr repetition 0
attr replication #0
attr resultdir results
attr runnumber 0
attr seedset 0
config image-path ../../inet-4.5.4/images
config network simulations.HCCNetwork
config sim-time-limit 100s
config *.visualizer.mediumVisualizer.displaySignals false
config *.visualizer.mediumVisualizer.displayCommunicationRanges true
config *.visualizer.physicalLinkVisualizer.displayLinks true
config *.host[*].mobility.typename RandomWaypointMobility
config *.host[*].mobility.initFromDisplayString false
config *.host[*].mobility.speed "uniform(15mps, 25mps)"
config *.host[*].mobility.waitTime "uniform(1s, 5s)"
config *.host[*].mobility.constraintAreaMinX 0m
config *.host[*].mobility.constraintAreaMinY 0m
config *.host[*].mobility.constraintAreaMinZ 0m
config *.host[*].mobility.constraintAreaMaxX 1000m
config *.host[*].mobility.constraintAreaMaxY 1000m
config *.host[*].mobility.constraintAreaMaxZ 0m
config *.host[*].numApps 1
config *.host[*].app[0].typename src.HCCApp
config *.host[*].app[0].beaconInterval 1s
config *.host[*].app[0].neighborValidityInterval 4s
config *.host[*].app[0].localPort 5000
config *.host[*].app[0].destPort 5000
config *.host[*].wlan[0].typename Ieee80211Interface
config *.host[*].wlan[0].radio.transmitter.power 2mW
config *.configurator.config "xml(\"<config><interface hosts='*' address='10.0.0.x' netmask='255.255.255.0'/><multicast-group hosts='*' address='224.0.0.1'/></config>\")"

par HCCNetwork.visualizer.canvasVisualizer.sceneVisualizer typename "\"inet.visualizer.canvas.scene.SceneCanvasVisualizer\""
par HCCNetwork.visualizer.canvasVisualizer.sceneVisualizer visualizationTargetModule "\"^.^.^\""
par HCCNetwork.visualizer.canvasVisualizer.sceneVisualizer visualizationSubjectModule "\"^.^.^\""
par HCCNetwork.visualizer.canvasVisualizer.sceneVisualizer tags "\"\""
par HCCNetwork.visualizer.canvasVisualizer.sceneVisualizer physicalEnvironmentModule "\"physicalEnvironment\""
par HCCNetwork.visualizer.canvasVisualizer.sceneVisualizer networkNodeVisualizerModule "\"^.networkNodeVisualizer\""
par HCCNetwork.visualizer.canvasVisualizer.sceneVisualizer axisLength "nan m"
attr mutable ""
attr unit m
par HCCNetwork.visualizer.canvasVisualizer.sceneVisualizer animationSpeed 0
par HCCNetwork.visualizer.canvasVisualizer.sceneVisualizer sceneMinX "nan m"
attr unit m
par HCCNetwork.visualizer.canvasVisualizer.sceneVisualizer sceneMinY "nan m"
attr unit m
par HCCNetwork.visualizer.canvasVisualizer.sceneVisualizer sceneMinZ "nan m"
attr unit m
par HCCNetwork.visualizer.canvasVisualizer.sceneVisualizer sceneMaxX "nan m"
attr unit m
par HCCNetwork.visualizer.canvasVisualizer.sceneVisualizer sceneMaxY "nan m"
attr unit m
par HCCNetwork.visualizer.canvasVisualizer.sceneVisualizer sceneMaxZ "nan m"
attr unit m
par HCCNetwork.visualizer.canvasVisualizer.sceneVisualizer zIndex 0
par HCCNetwork.visualizer.canvasVisualizer.sceneVisualizer viewAngle "\"x right y down z out\""
attr mutable ""
par HCCNetwork.visualizer.canvasVisualizer.sceneVisualizer viewScale "\"1 1\""
attr mutable ""
par HCCNetwork.visualizer.canvasVisualizer.sceneVisualizer viewTranslation "\"0 0\""
attr mutable ""
par HCCNetwork.visualizer.canvasVisualizer.sceneVisualizer descriptionFigure "\"\""
par HCCNetwork.visualizer.canvasVisualizer.physicalEnvironmentVisualizer typename "\"inet.visualizer.canvas.environment.PhysicalEnvironmentCanvasVisualizer\""
par HCCNetwork.visualizer.canvasVisualizer.physicalEnvironmentVisualizer visualizationTargetModule "\"^.^.^\""
par HCCNetwork.visualizer.canvasVisualizer.physicalEnvironmentVisualizer visualizationSubjectModule "\"^.^.^\""
par HCCNetwork.visualizer.canvasVisualizer.physicalEnvironmentVisualizer tags "\"\""
par HCCNetwork.visualizer.canvasVisualizer.physicalEnvironmentVisualizer physicalEnvironmentModule "\"physicalEnvironment\""
par HCCNetwork.visualizer.canvasVisualizer.physicalEnvironmentVisualizer displayObjects true
par HCCNetwork.visualizer.canvasVisualizer.physicalEnvironmentVisualizer zIndex 0
par HCCNetwork.visualizer.canvasVisualizer.networkNodeVisualizer typename "\"inet.visualizer.canvas.scene.NetworkNodeCanvasVisualizer\""
par HCCNetwork.visualizer.canvasVisualizer.networkNodeVisualizer visualizationTargetModule "\"^.^.^\""
par HCCNetwork.visualizer.canvasVisualizer.networkNodeVisualizer visualizationSubjectModule "\"^.^.^\""
par HCCNetwork.visualizer.canvasVisualizer.networkNodeVisualizer tags "\"\""
par HCCNetwork.visualizer.canvasVisualizer.networkNodeVisualizer nodeFilter "\"*\""
attr mutable ""
par HCCNetwork.visualizer.canvasVisualizer.networkNodeVisualizer annotationSpacing 4
par HCCNetwork.visualizer.canvasVisualizer.networkNodeVisualizer placementPenalty 10
par HCCNetwork.visualizer.canvasVisualizer.networkNodeVisualizer zIndex 0
par HCCNetwork.visualizer.canvasVisualizer.networkConnectionVisualizer typename "\"inet.visualizer.canvas.scene.NetworkConnectionCanvasVisualizer\""
par HCCNetwork.visualizer.canvasVisualizer.networkConnectionVisualizer visualizationTargetModule "\"^.^.^\""
par HCCNetwork.visualizer.canvasVisualizer.networkConnectionVisualizer visualizationSubjectModule "\"^.^.^\""
par HCCNetwork.visualizer.canvasVisualizer.networkConnectionVisualizer tags "\"\""
par HCCNetwork.visualizer.canvasVisualizer.networkConnectionVisualizer displayNetworkConnections true
par HCCNetwork.visualizer.canvasVisualizer.networkConnectionVisualizer nodeFilter "\"\""
attr mutable ""
par HCCNetwork.visualizer.canvasVisualizer.networkConnectionVisualizer lineColor "\"black\""
par HCCNetwork.visualizer.canvasVisualizer.networkConnectionVisualizer lineStyle "\"solid\""
par HCCNetwork.visualizer.canvasVisualizer.networkConnectionVisualizer lineWidth 1
par HCCNetwork.visualizer.canvasVisualizer.networkConnectionVisualizer zIndex 0
par HCCNetwork.visualizer.canvasVisualizer.mobilityVisualizer typename "\"inet.visualizer.canvas.mobility.MobilityCanvasVisualizer\""
par HCCNetwork.visualizer.canvasVisualizer.mobilityVisualizer visualizationTargetModule "\"^.^.^\""
par HCCNetwork.visualizer.canvasVisualizer.mobilityVisualizer visualizationSubjectModule "\"^.^.^\""
par HCCNetwork.visualizer.canvasVisualizer.mobilityVisualizer tags "\"\""
par HCCNetwork.visualizer.canvasVisualizer.mobilityVisualizer networkNodeVisualizerModule "\"^.networkNodeVisualizer\""
par HCCNetwork.visualizer.canvasVisualizer.mobilityVisualizer displayMobility true
par HCCNetwork.visualizer.canvasVisualizer.mobilityVisualizer animationSpeed 0
par HCCNetwork.visualizer.canvasVisualizer.mobilityVisualizer moduleFilter "\"**.mobility\""
attr mutable ""
par HCCNetwork.visualizer.canvasVisualizer.mobilityVisualizer displayPositions false
par HCCNetwork.visualizer.canvasVisualizer.mobilityVisualizer positionCircleRadius 4
par HCCNetwork.visualizer.canvasVisualizer.mobilityVisualizer positionCircleLineWidth 1
par HCCNetwork.visualizer.canvasVisualizer.mobilityVisualizer positionCircleLineColor "\"dark\""
par HCCNetwork.visualizer.canvasVisualizer.mobilityVisualizer positionCircleFillColor "\"dark\""
par HCCNetwork.visualizer.canvasVisualizer.mobilityVisualizer displayOrientations false
par HCCNetwork.visualizer.canvasVisualizer.mobilityVisualizer orientationPieRadius 32
par HCCNetwork.visualizer.canvasVisualizer.mobilityVisualizer orientationPieSize 0.2
par HCCNetwork.visualizer.canvasVisualizer.mobilityVisualizer orientationPieOpacity 0.25
par HCCNetwork.visualizer.canvasVisualizer.mobilityVisualizer orientationLineColor "\"black\""
par HCCNetwork.visualizer.canvasVisualizer.mobilityVisualizer orientationLineStyle "\"solid\""
par HCCNetwork.visualizer.canvasVisualizer.mobilityVisualizer orientationLineWidth 1
par HCCNetwork.visualizer.canvasVisualizer.mobilityVisualizer orientationFillColor "\"blue\""
par HCCNetwork.visualizer.canvasVisualizer.mobilityVisualizer displayVelocities false
par HCCNetwork.visualizer.canvasVisualizer.mobilityVisualizer velocityArrowScale 1
par HCCNetwork.visualizer.canvasVisualizer.mobilityVisualizer velocityLineColor "\"black\""
par HCCNetwork.visualizer.canvasVisualizer.mobilityVisualizer velocityLineStyle "\"solid\""
par HCCNetwork.visualizer.canvasVisualizer.mobilityVisualizer velocityLineWidth 1
par HCCNetwork.visualizer.canvasVisualizer.mobilityVisualizer displayMovementTrails false
par HCCNetwork.visualizer.canvasVisualizer.mobilityVisualizer movementTrailLineColor "\"dark\""
par HCCNetwork.visualizer.canvasVisualizer.mobilityVisualizer movementTrailLineStyle "\"solid\""
par HCCNetwork.visualizer.canvasVisualizer.mobilityVisualizer movementTrailLineWidth 1
par HCCNetwork.visualizer.canvasVisualizer.mobilityVisualizer trailLength 100
par HCCNetwork.visualizer.canvasVisualizer.mobilityVisualizer zIndex 0
par HCCNetwork.visualizer.canvasVisualizer.statisticVisualizer typename "\"inet.visualizer.canvas.common.StatisticCanvasVisualizer\""
par HCCNetwork.visualizer.canvasVisualizer.statisticVisualizer visualizationTargetModule "\"^.^.^\""
par HCCNetwork.visualizer.canvasVisualizer.statisticVisualizer visualizationSubjectModule "\"^.^.^\""
par HCCNetwork.visualizer.canvasVisualizer.statisticVisualizer tags "\"\""
par HCCNetwork.visualizer.canvasVisualizer.statisticVisualizer networkNodeVisualizerModule "\"^.networkNodeVisualizer\""
par HCCNetwork.visualizer.canvasVisualizer.statisticVisualizer displayStatistics true
par HCCNetwork.visualizer.canvasVisualizer.statisticVisualizer signalName "\"\""
par HCCNetwork.visualizer.canvasVisualizer.statisticVisualizer statisticName "\"\""
par HCCNetwork.visualizer.canvasVisualizer.statisticVisualizer statisticUnit "\"\""
par HCCNetwork.visualizer.canvasVisualizer.statisticVisualizer statisticExpression "\"\""
par HCCNetwork.visualizer.canvasVisualizer.statisticVisualizer sourceFilter "\"**\""
attr mutable ""
par HCCNetwork.visualizer.canvasVisualizer.statisticVisualizer format "\"%n: %v %u\""
attr mutable ""
par HCCNetwork.visualizer.canvasVisualizer.statisticVisualizer unit "\"\""
par HCCNetwork.visualizer.canvasVisualizer.statisticVisualizer font "\"<default>\""
par HCCNetwork.visualizer.canvasVisualizer.statisticVisualizer textColor "\"black\""
par HCCNetwork.visualizer.canvasVisualizer.statisticVisualizer backgroundColor "\"white\""
par HCCNetwork.visualizer.canvasVisualizer.statisticVisualizer opacity 1
par HCCNetwork.visualizer.canvasVisualizer.statisticVisualizer placementHint "\"top\""
par HCCNetwork.visualizer.canvasVisualizer.statisticVisualizer placementPriority 0
par HCCNetwork.visualizer.canvasVisualizer.statisticVisualizer zIndex 10
par HCCNetwork.visualizer.canvasVisualizer.statisticVisualizer propertyName "\"\""
par HCCNetwork.visualizer.canvasVisualizer.statisticVisualizer propertyIndex "\"\""
par HCCNetwork.visualizer.canvasVisualizer.infoVisualizer typename "\"inet.visualizer.canvas.common.InfoCanvasVisualizer\""
par HCCNetwork.visualizer.canvasVisualizer.infoVisualizer visualizationTargetModule "\"^.^.^\""
par HCCNetwork.visualizer.canvasVisualizer.infoVisualizer visualizationSubjectModule "\"^.^.^\""
par HCCNetwork.visualizer.canvasVisualizer.infoVisualizer tags "\"\""
par HCCNetwork.visualizer.canvasVisualizer.infoVisualizer networkNodeVisualizerModule "\"^.networkNodeVisualizer\""
par HCCNetwork.visualizer.canvasVisualizer.infoVisualizer displayInfos true
par HCCNetwork.visualizer.canvasVisualizer.infoVisualizer modules "\"\""
attr mutable ""
par HCCNetwork.visualizer.canvasVisualizer.infoVisualizer format "\"%t\""
attr mutable ""
par HCCNetwork.visualizer.canvasVisualizer.infoVisualizer font "\"<default>\""
par HCCNetwork.visualizer.canvasVisualizer.infoVisualizer textColor "\"black\""
par HCCNetwork.visualizer.canvasVisualizer.infoVisualizer backgroundColor "\"white\""
par HCCNetwork.visualizer.canvasVisualizer.infoVisualizer opacity 1
par HCCNetwork.visualizer.canvasVisualizer.infoVisualizer placementHint "\"top\""
par HCCNetwork.visualizer.canvasVisualizer.infoVisualizer placementPriority 0
par HCCNetwork.visualizer.canvasVisualizer.infoVisualizer zIndex 10
par HCCNetwork.visualizer.canvasVisualizer.energyStorageVisualizer typename "\"inet.visualizer.canvas.power.EnergyStorageCanvasVisualizer\""
par HCCNetwork.visualizer.canvasVisualizer.energyStorageVisualizer visualizationTargetModule "\"^.^.^\""
par HCCNetwork.visualizer.canvasVisualizer.energyStorageVisualizer visualizationSubjectModule "\"^.^.^\""
par HCCNetwork.visualizer.canvasVisualizer.energyStorageVisualizer tags "\"\""
par HCCNetwork.visualizer.canvasVisualizer.energyStorageVisualizer networkNodeVisualizerModule "\"^.networkNodeVisualizer\""
par HCCNetwork.visualizer.canvasVisualizer.energyStorageVisualizer displayEnergyStorages false
par HCCNetwork.visualizer.canvasVisualizer.energyStorageVisualizer energyStorageFilter "\"**\""
par HCCNetwork.visualizer.canvasVisualizer.energyStorageVisualizer color "\"green\""
par HCCNetwork.visualizer.canvasVisualizer.energyStorageVisualizer width 8
par HCCNetwork.visualizer.canvasVisualizer.energyStorageVisualizer height 24
par HCCNetwork.visualizer.canvasVisualizer.energyStorageVisualizer spacing 2
par HCCNetwork.visualizer.canvasVisualizer.energyStorageVisualizer placementHint "\"right\""
par HCCNetwork.visualizer.canvasVisualizer.energyStorageVisualizer placementPriority 0
par HCCNetwork.visualizer.canvasVisualizer.energyStorageVisualizer zIndex 10
par HCCNetwork.visualizer.canvasVisualizer.mediumVisualizer typename "\"inet.visualizer.canvas.physicallayer.MediumCanvasVisualizer\""
par HCCNetwork.visualizer.canvasVisualizer.mediumVisualizer visualizationTargetModule "\"^.^.^\""
par HCCNetwork.visualizer.canvasVisualizer.mediumVisualizer visualizationSubjectModule "\"^.^.^\""
par HCCNetwork.visualizer.canvasVisualizer.mediumVisualizer tags "\"\""
par HCCNetwork.visualizer.canvasVisualizer.mediumVisualizer mediumModule "\"radioMedium\""
par HCCNetwork.visualizer.canvasVisualizer.mediumVisualizer networkNodeVisualizerModule "\"^.networkNodeVisualizer\""
par HCCNetwork.visualizer.canvasVisualizer.mediumVisualizer nodeFilter "\"*\""
attr mutable ""
par HCCNetwork.visualizer.canvasVisualizer.mediumVisualizer interfaceFilter "\"*\""
attr mutable ""
par HCCNetwork.visualizer.canvasVisualizer.mediumVisualizer packetFilter "(omnetpp::cValueHolder)holder: \"*\""
attr mutable ""
par HCCNetwork.visualizer.canvasVisualizer.mediumVisualizer displaySignals false
par HCCNetwork.visualizer.canvasVisualizer.mediumVisualizer signalColor "\"dark\""
par HCCNetwork.visualizer.canvasVisualizer.mediumVisualizer signalPropagationAnimationSpeed "nan "
attr mutable ""
par HCCNetwork.visualizer.canvasVisualizer.mediumVisualizer signalPropagationAnimationTime 1s
attr unit s
par HCCNetwork.visualizer.canvasVisualizer.mediumVisualizer signalPropagationAdditionalTime 0s
attr unit s
par HCCNetwork.visualizer.canvasVisualizer.mediumVisualizer signalTransmissionAnimationSpeed "nan "
attr mutable ""
par HCCNetwork.visualizer.canvasVisualizer.mediumVisualizer signalTransmissionAnimationTime 1s
attr unit s
par HCCNetwork.visualizer.canvasVisualizer.mediumVisualizer signalAnimationSpeedChangeTimeMode "\"realTime\""
attr enum realTime,animationTime,simulationTime
par HCCNetwork.visualizer.canvasVisualizer.mediumVisualizer signalAnimationSpeedChangeTime 1s
attr unit s
par HCCNetwork.visualizer.canvasVisualizer.mediumVisualizer displaySignalDepartures false
par HCCNetwork.visualizer.canvasVisualizer.mediumVisualizer signalDepartureImage "\"misc/signal_departure.png\""
par HCCNetwork.visualizer.canvasVisualizer.mediumVisualizer signalDeparturePlacementHint "\"topCenter\""
par HCCNetwork.visualizer.canvasVisualizer.mediumVisualizer signalDeparturePlacementPriority 1
par HCCNetwork.visualizer.canvasVisualizer.mediumVisualizer displaySignalArrivals false
par HCCNetwork.visualizer.canvasVisualizer.mediumVisualizer signalArrivalImage "\"misc/signal_arrival.png\""
par HCCNetwork.visualizer.canvasVisualizer.mediumVisualizer signalArrivalPlacementHint "\"topCenter\""
par HCCNetwork.visualizer.canvasVisualizer.mediumVisualizer signalArrivalPlacementPriority -1
par HCCNetwork.visualizer.canvasVisualizer.mediumVisualizer displayCommunicationRanges false
par HCCNetwork.visualizer.canvasVisualizer.mediumVisualizer communicationRangeLineColor "\"blue\""
par HCCNetwork.visualizer.canvasVisualizer.mediumVisualizer communicationRangeLineStyle "\"solid\""
par HCCNetwork.visualizer.canvasVisualizer.mediumVisualizer communicationRangeLineWidth 1
par HCCNetwork.visualizer.canvasVisualizer.mediumVisualizer displayInterferenceRanges false
par HCCNetwork.visualizer.canvasVisualizer.mediumVisualizer interferenceRangeLineColor "\"gray\""
par HCCNetwork.visualizer.canvasVisualizer.mediumVisualizer interferenceRangeLineStyle "\"solid\""
par HCCNetwork.visualizer.canvasVisualizer.mediumVisualizer interferenceRangeLineWidth 1
par HCCNetwork.visualizer.canvasVisualizer.mediumVisualizer autoPowerAxis true
par HCCNetwork.visualizer.canvasVisualizer.mediumVisualizer signalMinPower "inf dBmW"
attr unit dBmW
par HCCNetwork.visualizer.canvasVisualizer.mediumVisualizer signalMaxPower 0dBmW
attr unit dBmW
par HCCNetwork.visualizer.canvasVisualizer.mediumVisualizer signalMinPowerDensity "inf dBmWpMHz"
attr unit dBmWpMHz
par HCCNetwork.visualizer.canvasVisualizer.mediumVisualizer signalMaxPowerDensity "-inf dBmWpMHz"
attr unit dBmWpMHz
par HCCNetwork.visualizer.canvasVisualizer.mediumVisualizer autoTimeAxis true
par HCCNetwork.visualizer.canvasVisualizer.mediumVisualizer signalMinTime 0s
attr unit s
par HCCNetwork.visualizer.canvasVisualizer.mediumVisualizer signalMaxTime 0s
attr unit s
par HCCNetwork.visualizer.canvasVisualizer.mediumVisualizer autoFrequencyAxis true
par HCCNetwork.visualizer.canvasVisualizer.mediumVisualizer signalMinFrequency "inf Hz"
attr unit Hz
par HCCNetwork.visualizer.canvasVisualizer.mediumVisualizer signalMaxFrequency "-inf Hz"
attr unit Hz
par HCCNetwork.visualizer.canvasVisualizer.mediumVisualizer displayMainPowerDensityMap false
par HCCNetwork.visualizer.canvasVisualizer.mediumVisualizer mainPowerDensityMapPixmapDensity 1
par HCCNetwork.visualizer.canvasVisualizer.mediumVisualizer mainPowerDensityMapMinX 0
par HCCNetwork.visualizer.canvasVisualizer.mediumVisualizer mainPowerDensityMapMaxX "nan "
par HCCNetwork.visualizer.canvasVisualizer.mediumVisualizer mainPowerDensityMapMinY 0
par HCCNetwork.visualizer.canvasVisualizer.mediumVisualizer mainPowerDensityMapMaxY "nan "
par HCCNetwork.visualizer.canvasVisualizer.mediumVisualizer mainPowerDensityMapZ 0
par HCCNetwork.visualizer.canvasVisualizer.mediumVisualizer mainPowerDensityMapFigureXTickCount 3
par HCCNetwork.visualizer.canvasVisualizer.mediumVisualizer mainPowerDensityMapFigureYTickCount 3
par HCCNetwork.visualizer.canvasVisualizer.mediumVisualizer displayPowerDensityMaps false
par HCCNetwork.visualizer.canvasVisualizer.mediumVisualizer powerDensityMapMode "\"auto\""
attr enum total,signal,auto
par HCCNetwork.visualizer.canvasVisualizer.mediumVisualizer powerDensityMapPixelMode "\"mean\""
attr enum sample,partition,mean
par HCCNetwork.visualizer.canvasVisualizer.mediumVisualizer powerDensityMapApproximationSize 10
par HCCNetwork.visualizer.canvasVisualizer.mediumVisualizer powerDensityMapCenterFrequency "nan Hz"
attr mutable ""
attr unit Hz
par HCCNetwork.visualizer.canvasVisualizer.mediumVisualizer powerDensityMapBandwidth 0Hz
attr mutable ""
attr unit Hz
par HCCNetwork.visualizer.canvasVisualizer.mediumVisualizer powerDensityMapFigureWidth 200
par HCCNetwork.visualizer.canvasVisualizer.mediumVisualizer powerDensityMapFigureHeight 120
par HCCNetwork.visualizer.canvasVisualizer.mediumVisualizer powerDensityMapPixmapWidth 200
par HCCNetwork.visualizer.canvasVisualizer.mediumVisualizer powerDensityMapPixmapHeight 120
par HCCNetwork.visualizer.canvasVisualizer.mediumVisualizer powerDensityMapZ 0
par HCCNetwork.visualizer.canvasVisualizer.mediumVisualizer powerDensityMapFigureXTickCount 3
par HCCNetwork.visualizer.canvasVisualizer.mediumVisualizer powerDensityMapFigureYTickCount 3
par HCCNetwork.visualizer.canvasVisualizer.mediumVisualizer displaySpectrums false
par HCCNetwork.visualizer.canvasVisualizer.mediumVisualizer spectrumMode "\"auto\""
attr enum total,signal,auto
par HCCNetwork.visualizer.canvasVisualizer.mediumVisualizer spectrumFigureWidth 200
par HCCNetwork.visualizer.canvasVisualizer.mediumVisualizer spectrumFigureHeight 120
par HCCNetwork.visualizer.canvasVisualizer.mediumVisualizer spectrumFigureXTickCount 3
par HCCNetwork.visualizer.canvasVisualizer.mediumVisualizer spectrumFigureYTickCount 5
par HCCNetwork.visualizer.canvasVisualizer.mediumVisualizer spectrumFigureInterpolationSize 5
par HCCNetwork.visualizer.canvasVisualizer.mediumVisualizer spectrumPlacementHint "\"bottomCenter\""
par HCCNetwork.visualizer.canvasVisualizer.mediumVisualizer spectrumPlacementPriority -1
par HCCNetwork.visualizer.canvasVisualizer.mediumVisualizer displaySpectrograms false
par HCCNetwork.visualizer.canvasVisualizer.mediumVisualizer spectrogramMode "\"auto\""
attr enum total,signal,auto
par HCCNetwork.visualizer.canvasVisualizer.mediumVisualizer spectrogramPixelMode "\"mean\""
attr enum sample,partition,mean
par HCCNetwork.visualizer.canvasVisualizer.mediumVisualizer spectrogramFigureWidth 200
par HCCNetwork.visualizer.canvasVisualizer.mediumVisualizer spectrogramFigureHeight 120
par HCCNetwork.visualizer.canvasVisualizer.mediumVisualizer spectrogramPixmapWidth 200
par HCCNetwork.visualizer.canvasVisualizer.mediumVisualizer spectrogramPixmapHeight 120
par HCCNetwork.visualizer.canvasVisualizer.mediumVisualizer spectrogramFigureXTickCount 3
par HCCNetwork.visualizer.canvasVisualizer.mediumVisualizer spectrogramFigureYTickCount 5
par HCCNetwork.visualizer.canvasVisualizer.mediumVisualizer spectrogramPlacementHint "\"bottomCenter\""
par HCCNetwork.visualizer.canvasVisualizer.mediumVisualizer spectrogramPlacementPriority -1
par HCCNetwork.visualizer.canvasVisualizer.mediumVisualizer zIndex 0
par HCCNetwork.visualizer.canvasVisualizer.mediumVisualizer signalShape "\"ring\""
attr enum ring,sphere
par HCCNetwork.visualizer.canvasVisualizer.mediumVisualizer signalOpacity 0.5
par HCCNetwork.visualizer.canvasVisualizer.mediumVisualizer signalRingCount 20
par HCCNetwork.visualizer.canvasVisualizer.mediumVisualizer signalRingSize 50m
attr unit m
par HCCNetwork.visualizer.canvasVisualizer.mediumVisualizer signalFadingDistance 50m
attr unit m
par HCCNetwork.visualizer.canvasVisualizer.mediumVisualizer signalFadingFactor 1.2
par HCCNetwork.visualizer.canvasVisualizer.mediumVisualizer signalWaveCount 20
par HCCNetwork.visualizer.canvasVisualizer.mediumVisualizer signalWaveLength 50m
attr unit m
par HCCNetwork.visualizer.canvasVisualizer.mediumVisualizer signalWaveWidth 10m
attr unit m
par HCCNetwork.visualizer.canvasVisualizer.mediumVisualizer signalWaveFadingAnimationSpeedFactor 1
par HCCNetwork.visualizer.canvasVisualizer.mediumVisualizer displayCommunicationHeat false
par HCCNetwork.visualizer.canvasVisualizer.obstacleLossVisualizer typename "\"inet.visualizer.canvas.physicallayer.TracingObstacleLossCanvasVisualizer\""
par HCCNetwork.visualizer.canvasVisualizer.obstacleLossVisualizer visualizationTargetModule "\"^.^.^\""
par HCCNetwork.visualizer.canvasVisualizer.obstacleLossVisualizer visualizationSubjectModule "\"^.^.^\""
par HCCNetwork.visualizer.canvasVisualizer.obstacleLossVisualizer tags "\"\""
par HCCNetwork.visualizer.canvasVisualizer.obstacleLossVisualizer displayIntersections false
par HCCNetwork.visualizer.canvasVisualizer.obstacleLossVisualizer intersectionLineColor "\"red\""
par HCCNetwork.visualizer.canvasVisualizer.obstacleLossVisualizer intersectionLineStyle "\"solid\""
par HCCNetwork.visualizer.canvasVisualizer.obstacleLossVisualizer intersectionLineWidth 1
par HCCNetwork.visualizer.canvasVisualizer.obstacleLossVisualizer displayFaceNormalVectors false
par HCCNetwork.visualizer.canvasVisualizer.obstacleLossVisualizer faceNormalLineColor "\"grey\""
par HCCNetwork.visualizer.canvasVisualizer.obstacleLossVisualizer faceNormalLineStyle "\"solid\""
par HCCNetwork.visualizer.canvasVisualizer.obstacleLossVisualizer faceNormalLineWidth 1
par HCCNetwork.visualizer.canvasVisualizer.obstacleLossVisualizer fadeOutMode "\"realTime\""
attr enum realTime,animationTime,simulationTime
par HCCNetwork.visualizer.canvasVisualizer.obstacleLossVisualizer fadeOutTime 1s
attr unit s
par HCCNetwork.visualizer.canvasVisualizer.obstacleLossVisualizer fadeOutAnimationSpeed 0
par HCCNetwork.visualizer.canvasVisualizer.obstacleLossVisualizer zIndex 0
par HCCNetwork.visualizer.canvasVisualizer.packetDropVisualizer typename "\"inet.visualizer.canvas.common.PacketDropCanvasVisualizer\""
par HCCNetwork.visualizer.canvasVisualizer.packetDropVisualizer visualizationTargetModule "\"^.^.^\""
par HCCNetwork.visualizer.canvasVisualizer.packetDropVisualizer visualizationSubjectModule "\"^.^.^\""
par HCCNetwork.visualizer.canvasVisualizer.packetDropVisualizer tags "\"\""
par HCCNetwork.visualizer.canvasVisualizer.packetDropVisualizer displayPacketDrops false
par HCCNetwork.visualizer.canvasVisualizer.packetDropVisualizer nodeFilter "\"*\""
attr mutable ""
par HCCNetwork.visualizer.canvasVisualizer.packetDropVisualizer interfaceFilter "\"*\""
attr mutable ""
par HCCNetwork.visualizer.canvasVisualizer.packetDropVisualizer packetFilter "(omnetpp::cValueHolder)holder: \"*\""
attr mutable ""
par HCCNetwork.visualizer.canvasVisualizer.packetDropVisualizer detailsFilter "\"*\""
attr mutable ""
par HCCNetwork.visualizer.canvasVisualizer.packetDropVisualizer icon "\"msg/packet_s\""
par HCCNetwork.visualizer.canvasVisualizer.packetDropVisualizer iconTintAmount 1
par HCCNetwork.visualizer.canvasVisualizer.packetDropVisualizer iconTintColor "\"dark\""
par HCCNetwork.visualizer.canvasVisualizer.packetDropVisualizer labelFormat "\"%n\""
attr mutable ""
par HCCNetwork.visualizer.canvasVisualizer.packetDropVisualizer labelFont "\"<default>\""
par HCCNetwork.visualizer.canvasVisualizer.packetDropVisualizer labelColor "\"black\""
par HCCNetwork.visualizer.canvasVisualizer.packetDropVisualizer fadeOutMode "\"realTime\""
attr enum realTime,animationTime,simulationTime
par HCCNetwork.visualizer.canvasVisualizer.packetDropVisualizer fadeOutTime 1s
attr unit s
par HCCNetwork.visualizer.canvasVisualizer.packetDropVisualizer fadeOutAnimationSpeed 0
par HCCNetwork.visualizer.canvasVisualizer.packetDropVisualizer zIndex 10
par HCCNetwork.visualizer.canvasVisualizer.packetDropVisualizer dx 32
par HCCNetwork.visualizer.canvasVisualizer.packetDropVisualizer dy 64
par HCCNetwork.visualizer.canvasVisualizer.packetFlowVisualizer typename "\"inet.visualizer.canvas.flow.PacketFlowCanvasVisualizer\""
par HCCNetwork.visualizer.canvasVisualizer.packetFlowVisualizer visualizationTargetModule "\"^.^.^\""
par HCCNetwork.visualizer.canvasVisualizer.packetFlowVisualizer visualizationSubjectModule "\"^.^.^\""
par HCCNetwork.visualizer.canvasVisualizer.packetFlowVisualizer tags "\"\""
par HCCNetwork.visualizer.canvasVisualizer.packetFlowVisualizer displayRoutes false
par HCCNetwork.visualizer.canvasVisualizer.packetFlowVisualizer startPathSignal "\"packetFlowStarted\""
par HCCNetwork.visualizer.canvasVisualizer.packetFlowVisualizer extendPathSignal "\"packetReceivedFromLower\""
par HCCNetwork.visualizer.canvasVisualizer.packetFlowVisualizer endPathSignal "\"packetFlowEnded\""
par HCCNetwork.visualizer.canvasVisualizer.packetFlowVisualizer nodeFilter "\"*\""
attr mutable ""
par HCCNetwork.visualizer.canvasVisualizer.packetFlowVisualizer packetFilter "(omnetpp::cValueHolder)holder: \"*\""
attr mutable ""
par HCCNetwork.visualizer.canvasVisualizer.packetFlowVisualizer lineColor "\"dark\""
par HCCNetwork.visualizer.canvasVisualizer.packetFlowVisualizer lineStyle "\"dashed\""
par HCCNetwork.visualizer.canvasVisualizer.packetFlowVisualizer lineWidth 3
par HCCNetwork.visualizer.canvasVisualizer.packetFlowVisualizer lineSmooth false
par HCCNetwork.visualizer.canvasVisualizer.packetFlowVisualizer lineShift 16
par HCCNetwork.visualizer.canvasVisualizer.packetFlowVisualizer lineShiftMode "\"normal\""
par HCCNetwork.visualizer.canvasVisualizer.packetFlowVisualizer lineContactSpacing 3
par HCCNetwork.visualizer.canvasVisualizer.packetFlowVisualizer lineContactMode "\"rectangular\""
attr enum circular,rectangular
par HCCNetwork.visualizer.canvasVisualizer.packetFlowVisualizer labelFormat "\"%L %p pk (%l)\""
par HCCNetwork.visualizer.canvasVisualizer.packetFlowVisualizer labelFont "\"<default>, 8px\""
par HCCNetwork.visualizer.canvasVisualizer.packetFlowVisualizer labelColor "\"\""
par HCCNetwork.visualizer.canvasVisualizer.packetFlowVisualizer fadeOutMode "\"realTime\""
attr enum realTime,animationTime,simulationTime
par HCCNetwork.visualizer.canvasVisualizer.packetFlowVisualizer fadeOutTime 0s
attr unit s
par HCCNetwork.visualizer.canvasVisualizer.packetFlowVisualizer fadeOutAnimationSpeed 0
par HCCNetwork.visualizer.canvasVisualizer.packetFlowVisualizer zIndex 4
par HCCNetwork.visualizer.canvasVisualizer.queueVisualizer typename "\"inet.visualizer.canvas.common.QueueCanvasVisualizer\""
par HCCNetwork.visualizer.canvasVisualizer.queueVisualizer visualizationTargetModule "\"^.^.^\""
par HCCNetwork.visualizer.canvasVisualizer.queueVisualizer visualizationSubjectModule "\"^.^.^\""
par HCCNetwork.visualizer.canvasVisualizer.queueVisualizer tags "\"\""
par HCCNetwork.visualizer.canvasVisualizer.queueVisualizer networkNodeVisualizerModule "\"^.networkNodeVisualizer\""
par HCCNetwork.visualizer.canvasVisualizer.queueVisualizer displayQueues false
par HCCNetwork.visualizer.canvasVisualizer.queueVisualizer queueFilter "\"**\""
par HCCNetwork.visualizer.canvasVisualizer.queueVisualizer color "\"blue\""
par HCCNetwork.visualizer.canvasVisualizer.queueVisualizer width 8
par HCCNetwork.visualizer.canvasVisualizer.queueVisualizer height 24
par HCCNetwork.visualizer.canvasVisualizer.queueVisualizer spacing 2
par HCCNetwork.visualizer.canvasVisualizer.queueVisualizer placementHint "\"right\""
par HCCNetwork.visualizer.canvasVisualizer.queueVisualizer placementPriority 0
par HCCNetwork.visualizer.canvasVisualizer.queueVisualizer zIndex 10
par HCCNetwork.visualizer.canvasVisualizer.gateScheduleVisualizer typename "\"inet.visualizer.canvas.common.GateScheduleCanvasVisualizer\""
par HCCNetwork.visualizer.canvasVisualizer.gateScheduleVisualizer visualizationTargetModule "\"^.^.^\""
par HCCNetwork.visualizer.canvasVisualizer.gateScheduleVisualizer visualizationSubjectModule "\"^.^.^\""
par HCCNetwork.visualizer.canvasVisualizer.gateScheduleVisualizer tags "\"\""
par HCCNetwork.visualizer.canvasVisualizer.gateScheduleVisualizer networkNodeVisualizerModule "\"^.networkNodeVisualizer\""
par HCCNetwork.visualizer.canvasVisualizer.gateScheduleVisualizer displayGateSchedules false
par HCCNetwork.visualizer.canvasVisualizer.gateScheduleVisualizer labelFormat "\"%i %D\""
par HCCNetwork.visualizer.canvasVisualizer.gateScheduleVisualizer gateFilter "\"**\""
par HCCNetwork.visualizer.canvasVisualizer.gateScheduleVisualizer width 100
par HCCNetwork.visualizer.canvasVisualizer.gateScheduleVisualizer height 8
par HCCNetwork.visualizer.canvasVisualizer.gateScheduleVisualizer spacing 2
par HCCNetwork.visualizer.canvasVisualizer.gateScheduleVisualizer placementHint "\"right\""
par HCCNetwork.visualizer.canvasVisualizer.gateScheduleVisualizer placementPriority 0
par HCCNetwork.visualizer.canvasVisualizer.gateScheduleVisualizer displayDuration 0s
attr mutable ""
attr unit s
par HCCNetwork.visualizer.canvasVisualizer.gateScheduleVisualizer currentTimePosition 50
par HCCNetwork.visualizer.canvasVisualizer.gateScheduleVisualizer zIndex 10
par HCCNetwork.visualizer.canvasVisualizer.radioVisualizer typename "\"inet.visualizer.canvas.physicallayer.RadioCanvasVisualizer\""
par HCCNetwork.visualizer.canvasVisualizer.radioVisualizer visualizationTargetModule "\"^.^.^\""
par HCCNetwork.visualizer.canvasVisualizer.radioVisualizer visualizationSubjectModule "\"^.^.^\""
par HCCNetwork.visualizer.canvasVisualizer.radioVisualizer tags "\"\""
par HCCNetwork.visualizer.canvasVisualizer.radioVisualizer networkNodeVisualizerModule "\"^.networkNodeVisualizer\""
par HCCNetwork.visualizer.canvasVisualizer.radioVisualizer displayRadios false
par HCCNetwork.visualizer.canvasVisualizer.radioVisualizer displayRadioMode true
par HCCNetwork.visualizer.canvasVisualizer.radioVisualizer displayReceptionState true
par HCCNetwork.visualizer.canvasVisualizer.radioVisualizer displayTransmissionState true
par HCCNetwork.visualizer.canvasVisualizer.radioVisualizer displayAntennaLobes false
par HCCNetwork.visualizer.canvasVisualizer.radioVisualizer radioFilter "\"**\""
attr mutable ""
par HCCNetwork.visualizer.canvasVisualizer.radioVisualizer radioModeImages "\"block/process_vs block/timer_vs block/wrx_vs block/wtx_vs block/wrxtx_vs block/cogwheel_vs\""
par HCCNetwork.visualizer.canvasVisualizer.radioVisualizer receptionStateImages "\"- - misc/receiving misc/receiving\""
par HCCNetwork.visualizer.canvasVisualizer.radioVisualizer transmissionStateImages "\"- - misc/transmitting\""
par HCCNetwork.visualizer.canvasVisualizer.radioVisualizer width 16
par HCCNetwork.visualizer.canvasVisualizer.radioVisualizer height 16
par HCCNetwork.visualizer.canvasVisualizer.radioVisualizer placementHint "\"bottomRight\""
par HCCNetwork.visualizer.canvasVisualizer.radioVisualizer placementPriority 0
par HCCNetwork.visualizer.canvasVisualizer.radioVisualizer antennaLobeNormalize false
par HCCNetwork.visualizer.canvasVisualizer.radioVisualizer antennaLobeRelativeLabels false
par HCCNetwork.visualizer.canvasVisualizer.radioVisualizer antennaLobePlaneGlobal true
par HCCNetwork.visualizer.canvasVisualizer.radioVisualizer antennaLobePlane "\"view\""
attr enum view,xy,xz,yz
par HCCNetwork.visualizer.canvasVisualizer.radioVisualizer antennaLobeMode "\"logarithmic\""
attr enum logarithmic,linear
par HCCNetwork.visualizer.canvasVisualizer.radioVisualizer antennaLobeLogarithmicBase 10
par HCCNetwork.visualizer.canvasVisualizer.radioVisualizer antennaLobeLogarithmicScale 100
par HCCNetwork.visualizer.canvasVisualizer.radioVisualizer antennaLobeRadius 100
par HCCNetwork.visualizer.canvasVisualizer.radioVisualizer antennaLobeStep 10deg
attr unit deg
par HCCNetwork.visualizer.canvasVisualizer.radioVisualizer antennaLobeOpacity 0.25
par HCCNetwork.visualizer.canvasVisualizer.radioVisualizer antennaLobeLineSmooth true
par HCCNetwork.visualizer.canvasVisualizer.radioVisualizer antennaLobeLineColor "\"black\""
par HCCNetwork.visualizer.canvasVisualizer.radioVisualizer antennaLobeLineStyle "\"solid\""
par HCCNetwork.visualizer.canvasVisualizer.radioVisualizer antennaLobeLineWidth 1
par HCCNetwork.visualizer.canvasVisualizer.radioVisualizer antennaLobeFillColor "\"white\""
par HCCNetwork.visualizer.canvasVisualizer.radioVisualizer zIndex 10
par HCCNetwork.visualizer.canvasVisualizer.physicalLinkVisualizer typename "\"inet.visualizer.canvas.physicallayer.PhysicalLinkCanvasVisualizer\""
par HCCNetwork.visualizer.canvasVisualizer.physicalLinkVisualizer visualizationTargetModule "\"^.^.^\""
par HCCNetwork.visualizer.canvasVisualizer.physicalLinkVisualizer visualizationSubjectModule "\"^.^.^\""
par HCCNetwork.visualizer.canvasVisualizer.physicalLinkVisualizer tags "\"\""
par HCCNetwork.visualizer.canvasVisualizer.physicalLinkVisualizer displayLinks false
par HCCNetwork.visualizer.canvasVisualizer.physicalLinkVisualizer activityLevel "\"service\""
attr enum service,peer,protocol
par HCCNetwork.visualizer.canvasVisualizer.physicalLinkVisualizer nodeFilter "\"*\""
attr mutable ""
par HCCNetwork.visualizer.canvasVisualizer.physicalLinkVisualizer interfaceFilter "\"*\""
attr mutable ""
par HCCNetwork.visualizer.canvasVisualizer.physicalLinkVisualizer packetFilter "(omnetpp::cValueHolder)holder: \"*\""
attr mutable ""
par HCCNetwork.visualizer.canvasVisualizer.physicalLinkVisualizer lineColor "\"olive\""
par HCCNetwork.visualizer.canvasVisualizer.physicalLinkVisualizer lineStyle "\"dotted\""
par HCCNetwork.visualizer.canvasVisualizer.physicalLinkVisualizer lineWidth 3
par HCCNetwork.visualizer.canvasVisualizer.physicalLinkVisualizer lineShift 16
par HCCNetwork.visualizer.canvasVisualizer.physicalLinkVisualizer lineShiftMode "\"normal\""
par HCCNetwork.visualizer.canvasVisualizer.physicalLinkVisualizer lineContactSpacing 3
par HCCNetwork.visualizer.canvasVisualizer.physicalLinkVisualizer lineContactMode "\"rectangular\""
attr enum circular,rectangular
par HCCNetwork.visualizer.canvasVisualizer.physicalLinkVisualizer labelFormat "\"%n\""
par HCCNetwork.visualizer.canvasVisualizer.physicalLinkVisualizer labelFont "\"<default>, 8px\""
par HCCNetwork.visualizer.canvasVisualizer.physicalLinkVisualizer labelColor "\"olive\""
par HCCNetwork.visualizer.canvasVisualizer.physicalLinkVisualizer fadeOutMode "\"realTime\""
attr enum realTime,animationTime,simulationTime
par HCCNetwork.visualizer.canvasVisualizer.physicalLinkVisualizer fadeOutTime 1s
attr unit s
par HCCNetwork.visualizer.canvasVisualizer.physicalLinkVisualizer fadeOutAnimationSpeed 0
par HCCNetwork.visualizer.canvasVisualizer.physicalLinkVisualizer holdAnimationTime 0s
attr unit s
par HCCNetwork.visualizer.canvasVisualizer.physicalLinkVisualizer zIndex 1
par HCCNetwork.visualizer.canvasVisualizer.interfaceTableVisualizer typename "\"inet.visualizer.canvas.linklayer.InterfaceTableCanvasVisualizer\""
par HCCNetwork.visualizer.canvasVisualizer.interfaceTableVisualizer visualizationTargetModule "\"^.^.^\""
par HCCNetwork.visualizer.canvasVisualizer.interfaceTableVisualizer visualizationSubjectModule "\"^.^.^\""
par HCCNetwork.visualizer.canvasVisualizer.interfaceTableVisualizer tags "\"\""
par HCCNetwork.visualizer.canvasVisualizer.interfaceTableVisualizer networkNodeVisualizerModule "\"^.networkNodeVisualizer\""
par HCCNetwork.visualizer.canvasVisualizer.interfaceTableVisualizer displayInterfaceTables false
par HCCNetwork.visualizer.canvasVisualizer.interfaceTableVisualizer displayWiredInterfacesAtConnections true
par HCCNetwork.visualizer.canvasVisualizer.interfaceTableVisualizer displayBackground false
par HCCNetwork.visualizer.canvasVisualizer.interfaceTableVisualizer nodeFilter "\"*\""
attr mutable ""
par HCCNetwork.visualizer.canvasVisualizer.interfaceTableVisualizer interfaceFilter "\"not(lo*)\""
attr mutable ""
par HCCNetwork.visualizer.canvasVisualizer.interfaceTableVisualizer format "\"%N %\\\\%a%/%l\""
attr mutable ""
par HCCNetwork.visualizer.canvasVisualizer.interfaceTableVisualizer placementHint "\"top\""
par HCCNetwork.visualizer.canvasVisualizer.interfaceTableVisualizer placementPriority 0
par HCCNetwork.visualizer.canvasVisualizer.interfaceTableVisualizer font "\"<default>\""
par HCCNetwork.visualizer.canvasVisualizer.interfaceTableVisualizer textColor "\"#005030\""
par HCCNetwork.visualizer.canvasVisualizer.interfaceTableVisualizer backgroundColor "\"white\""
par HCCNetwork.visualizer.canvasVisualizer.interfaceTableVisualizer opacity 1
par HCCNetwork.visualizer.canvasVisualizer.interfaceTableVisualizer zIndex 10
par HCCNetwork.visualizer.canvasVisualizer.dataLinkVisualizer typename "\"inet.visualizer.canvas.linklayer.DataLinkCanvasVisualizer\""
par HCCNetwork.visualizer.canvasVisualizer.dataLinkVisualizer visualizationTargetModule "\"^.^.^\""
par HCCNetwork.visualizer.canvasVisualizer.dataLinkVisualizer visualizationSubjectModule "\"^.^.^\""
par HCCNetwork.visualizer.canvasVisualizer.dataLinkVisualizer tags "\"\""
par HCCNetwork.visualizer.canvasVisualizer.dataLinkVisualizer displayLinks false
par HCCNetwork.visualizer.canvasVisualizer.dataLinkVisualizer activityLevel "\"service\""
attr enum service,peer,protocol
par HCCNetwork.visualizer.canvasVisualizer.dataLinkVisualizer nodeFilter "\"*\""
attr mutable ""
par HCCNetwork.visualizer.canvasVisualizer.dataLinkVisualizer interfaceFilter "\"*\""
attr mutable ""
par HCCNetwork.visualizer.canvasVisualizer.dataLinkVisualizer packetFilter "(omnetpp::cValueHolder)holder: \"*\""
attr mutable ""
par HCCNetwork.visualizer.canvasVisualizer.dataLinkVisualizer lineColor "\"darkcyan\""
par HCCNetwork.visualizer.canvasVisualizer.dataLinkVisualizer lineStyle "\"solid\""
par HCCNetwork.visualizer.canvasVisualizer.dataLinkVisualizer lineWidth 3
par HCCNetwork.visualizer.canvasVisualizer.dataLinkVisualizer lineShift 16
par HCCNetwork.visualizer.canvasVisualizer.dataLinkVisualizer lineShiftMode "\"normal\""
par HCCNetwork.visualizer.canvasVisualizer.dataLinkVisualizer lineContactSpacing 3
par HCCNetwork.visualizer.canvasVisualizer.dataLinkVisualizer lineContactMode "\"rectangular\""
attr enum circular,rectangular
par HCCNetwork.visualizer.canvasVisualizer.dataLinkVisualizer labelFormat "\"%n\""
par HCCNetwork.visualizer.canvasVisualizer.dataLinkVisualizer labelFont "\"<default>, 8px\""
par HCCNetwork.visualizer.canvasVisualizer.dataLinkVisualizer labelColor "\"darkcyan\""
par HCCNetwork.visualizer.canvasVisualizer.dataLinkVisualizer fadeOutMode "\"realTime\""
attr enum realTime,animationTime,simulationTime
par HCCNetwork.visualizer.canvasVisualizer.dataLinkVisualizer fadeOutTime 1s
attr unit s
par HCCNetwork.visualizer.canvasVisualizer.dataLinkVisualizer fadeOutAnimationSpeed 0
par HCCNetwork.visualizer.canvasVisualizer.dataLinkVisualizer holdAnimationTime 0s
attr unit s
par HCCNetwork.visualizer.canvasVisualizer.dataLinkVisualizer zIndex 2
par HCCNetwork.visualizer.canvasVisualizer.linkBreakVisualizer typename "\"inet.visualizer.canvas.linklayer.LinkBreakCanvasVisualizer\""
par HCCNetwork.visualizer.canvasVisualizer.linkBreakVisualizer visualizationTargetModule "\"^.^.^\""
par HCCNetwork.visualizer.canvasVisualizer.linkBreakVisualizer visualizationSubjectModule "\"^.^.^\""
par HCCNetwork.visualizer.canvasVisualizer.linkBreakVisualizer tags "\"\""
par HCCNetwork.visualizer.canvasVisualizer.linkBreakVisualizer displayLinkBreaks false
par HCCNetwork.visualizer.canvasVisualizer.linkBreakVisualizer nodeFilter "\"*\""
attr mutable ""
par HCCNetwork.visualizer.canvasVisualizer.linkBreakVisualizer interfaceFilter "\"*\""
attr mutable ""
par HCCNetwork.visualizer.canvasVisualizer.linkBreakVisualizer packetFilter "(omnetpp::cValueHolder)holder: \"*\""
attr mutable ""
par HCCNetwork.visualizer.canvasVisualizer.linkBreakVisualizer icon "\"status/stop\""
par HCCNetwork.visualizer.canvasVisualizer.linkBreakVisualizer iconTintAmount 0
par HCCNetwork.visualizer.canvasVisualizer.linkBreakVisualizer iconTintColor "\"\""
par HCCNetwork.visualizer.canvasVisualizer.linkBreakVisualizer fadeOutMode "\"realTime\""
attr enum realTime,animationTime,simulationTime
par HCCNetwork.visualizer.canvasVisualizer.linkBreakVisualizer fadeOutTime 1s
attr unit s
par HCCNetwork.visualizer.canvasVisualizer.linkBreakVisualizer fadeOutAnimationSpeed 0
par HCCNetwork.visualizer.canvasVisualizer.linkBreakVisualizer zIndex 2
par HCCNetwork.visualizer.canvasVisualizer.ieee80211Visualizer typename "\"inet.visualizer.canvas.linklayer.Ieee80211CanvasVisualizer\""
par HCCNetwork.visualizer.canvasVisualizer.ieee80211Visualizer visualizationTargetModule "\"^.^.^\""
par HCCNetwork.visualizer.canvasVisualizer.ieee80211Visualizer visualizationSubjectModule "\"^.^.^\""
par HCCNetwork.visualizer.canvasVisualizer.ieee80211Visualizer tags "\"\""
par HCCNetwork.visualizer.canvasVisualizer.ieee80211Visualizer networkNodeVisualizerModule "\"^.networkNodeVisualizer\""
par HCCNetwork.visualizer.canvasVisualizer.ieee80211Visualizer displayAssociations false
par HCCNetwork.visualizer.canvasVisualizer.ieee80211Visualizer nodeFilter "\"*\""
attr mutable ""
par HCCNetwork.visualizer.canvasVisualizer.ieee80211Visualizer interfaceFilter "\"*\""
attr mutable ""
par HCCNetwork.visualizer.canvasVisualizer.ieee80211Visualizer minPower -85dBm
attr unit dBm
par HCCNetwork.visualizer.canvasVisualizer.ieee80211Visualizer maxPower -50dBm
attr unit dBm
par HCCNetwork.visualizer.canvasVisualizer.ieee80211Visualizer icons "\"misc/signal_power_0 misc/signal_power_1 misc/signal_power_2 misc/signal_power_3\""
par HCCNetwork.visualizer.canvasVisualizer.ieee80211Visualizer iconColor "\"dark\""
par HCCNetwork.visualizer.canvasVisualizer.ieee80211Visualizer labelFont "\"<default>\""
par HCCNetwork.visualizer.canvasVisualizer.ieee80211Visualizer labelColor "\"black\""
par HCCNetwork.visualizer.canvasVisualizer.ieee80211Visualizer placementHint "\"top\""
par HCCNetwork.visualizer.canvasVisualizer.ieee80211Visualizer placementPriority 0
par HCCNetwork.visualizer.canvasVisualizer.ieee80211Visualizer zIndex 2
par HCCNetwork.visualizer.canvasVisualizer.networkRouteVisualizer typename "\"inet.visualizer.canvas.networklayer.NetworkRouteCanvasVisualizer\""
par HCCNetwork.visualizer.canvasVisualizer.networkRouteVisualizer visualizationTargetModule "\"^.^.^\""
par HCCNetwork.visualizer.canvasVisualizer.networkRouteVisualizer visualizationSubjectModule "\"^.^.^\""
par HCCNetwork.visualizer.canvasVisualizer.networkRouteVisualizer tags "\"\""
par HCCNetwork.visualizer.canvasVisualizer.networkRouteVisualizer displayRoutes false
par HCCNetwork.visualizer.canvasVisualizer.networkRouteVisualizer startPathSignal "\"packetReceivedFromUpper\""
par HCCNetwork.visualizer.canvasVisualizer.networkRouteVisualizer extendPathSignal "\"packetReceivedFromLower\""
par HCCNetwork.visualizer.canvasVisualizer.networkRouteVisualizer endPathSignal "\"packetSentToUpper\""
par HCCNetwork.visualizer.canvasVisualizer.networkRouteVisualizer nodeFilter "\"*\""
attr mutable ""
par HCCNetwork.visualizer.canvasVisualizer.networkRouteVisualizer packetFilter "(omnetpp::cValueHolder)holder: \"*\""
attr mutable ""
par HCCNetwork.visualizer.canvasVisualizer.networkRouteVisualizer lineColor "\"dark\""
par HCCNetwork.visualizer.canvasVisualizer.networkRouteVisualizer lineStyle "\"solid\""
par HCCNetwork.visualizer.canvasVisualizer.networkRouteVisualizer lineWidth 3
par HCCNetwork.visualizer.canvasVisualizer.networkRouteVisualizer lineSmooth false
par HCCNetwork.visualizer.canvasVisualizer.networkRouteVisualizer lineShift 16
par HCCNetwork.visualizer.canvasVisualizer.networkRouteVisualizer lineShiftMode "\"normal\""
par HCCNetwork.visualizer.canvasVisualizer.networkRouteVisualizer lineContactSpacing 3
par HCCNetwork.visualizer.canvasVisualizer.networkRouteVisualizer lineContactMode "\"rectangular\""
attr enum circular,rectangular
par HCCNetwork.visualizer.canvasVisualizer.networkRouteVisualizer labelFormat "\"%n\""
par HCCNetwork.visualizer.canvasVisualizer.networkRouteVisualizer labelFont "\"<default>, 8px\""
par HCCNetwork.visualizer.canvasVisualizer.networkRouteVisualizer labelColor "\"\""
par HCCNetwork.visualizer.canvasVisualizer.networkRouteVisualizer fadeOutMode "\"realTime\""
attr enum realTime,animationTime,simulationTime
par HCCNetwork.visualizer.canvasVisualizer.networkRouteVisualizer fadeOutTime 1s
attr unit s
par HCCNetwork.visualizer.canvasVisualizer.networkRouteVisualizer fadeOutAnimationSpeed 0
par HCCNetwork.visualizer.canvasVisualizer.networkRouteVisualizer zIndex 3
par HCCNetwork.visualizer.canvasVisualizer.routingTableVisualizer typename "\"inet.visualizer.canvas.networklayer.RoutingTableCanvasVisualizer\""
par HCCNetwork.visualizer.canvasVisualizer.routingTableVisualizer visualizationTargetModule "\"^.^.^\""
par HCCNetwork.visualizer.canvasVisualizer.routingTableVisualizer visualizationSubjectModule "\"^.^.^\""
par HCCNetwork.visualizer.canvasVisualizer.routingTableVisualizer tags "\"\""
par HCCNetwork.visualizer.canvasVisualizer.routingTableVisualizer displayRoutingTables false
par HCCNetwork.visualizer.canvasVisualizer.routingTableVisualizer displayRoutesIndividually true
par HCCNetwork.visualizer.canvasVisualizer.routingTableVisualizer displayLabels true
par HCCNetwork.visualizer.canvasVisualizer.routingTableVisualizer destinationFilter "\"*\""
attr mutable ""
par HCCNetwork.visualizer.canvasVisualizer.routingTableVisualizer nodeFilter "\"*\""
attr mutable ""
par HCCNetwork.visualizer.canvasVisualizer.routingTableVisualizer lineColor "\"black\""
par HCCNetwork.visualizer.canvasVisualizer.routingTableVisualizer lineStyle "\"solid\""
par HCCNetwork.visualizer.canvasVisualizer.routingTableVisualizer lineWidth 2
par HCCNetwork.visualizer.canvasVisualizer.routingTableVisualizer lineShift 16
par HCCNetwork.visualizer.canvasVisualizer.routingTableVisualizer lineShiftMode "\"normal\""
par HCCNetwork.visualizer.canvasVisualizer.routingTableVisualizer lineContactSpacing 3
par HCCNetwork.visualizer.canvasVisualizer.routingTableVisualizer lineContactMode "\"rectangular\""
attr enum circular,rectangular
par HCCNetwork.visualizer.canvasVisualizer.routingTableVisualizer labelFormat "\"%d/%m -> %g (%n)\""
attr mutable ""
par HCCNetwork.visualizer.canvasVisualizer.routingTableVisualizer labelFont "\"<default>, 8px\""
par HCCNetwork.visualizer.canvasVisualizer.routingTableVisualizer labelColor "\"black\""
par HCCNetwork.visualizer.canvasVisualizer.routingTableVisualizer zIndex 0
par HCCNetwork.visualizer.canvasVisualizer.transportRouteVisualizer typename "\"inet.visualizer.canvas.transportlayer.TransportRouteCanvasVisualizer\""
par HCCNetwork.visualizer.canvasVisualizer.transportRouteVisualizer visualizationTargetModule "\"^.^.^\""
par HCCNetwork.visualizer.canvasVisualizer.transportRouteVisualizer visualizationSubjectModule "\"^.^.^\""
par HCCNetwork.visualizer.canvasVisualizer.transportRouteVisualizer tags "\"\""
par HCCNetwork.visualizer.canvasVisualizer.transportRouteVisualizer displayRoutes false
par HCCNetwork.visualizer.canvasVisualizer.transportRouteVisualizer startPathSignal "\"packetReceivedFromUpper\""
par HCCNetwork.visualizer.canvasVisualizer.transportRouteVisualizer extendPathSignal "\"packetReceivedFromLower\""
par HCCNetwork.visualizer.canvasVisualizer.transportRouteVisualizer endPathSignal "\"packetSentToUpper\""
par HCCNetwork.visualizer.canvasVisualizer.transportRouteVisualizer nodeFilter "\"*\""
attr mutable ""
par HCCNetwork.visualizer.canvasVisualizer.transportRouteVisualizer packetFilter "(omnetpp::cValueHolder)holder: \"*\""
attr mutable ""
par HCCNetwork.visualizer.canvasVisualizer.transportRouteVisualizer lineColor "\"dark\""
par HCCNetwork.visualizer.canvasVisualizer.transportRouteVisualizer lineStyle "\"solid\""
par HCCNetwork.visualizer.canvasVisualizer.transportRouteVisualizer lineWidth 3
par HCCNetwork.visualizer.canvasVisualizer.transportRouteVisualizer lineSmooth false
par HCCNetwork.visualizer.canvasVisualizer.transportRouteVisualizer lineShift 16
par HCCNetwork.visualizer.canvasVisualizer.transportRouteVisualizer lineShiftMode "\"normal\""
par HCCNetwork.visualizer.canvasVisualizer.transportRouteVisualizer lineContactSpacing 3
par HCCNetwork.visualizer.canvasVisualizer.transportRouteVisualizer lineContactMode "\"rectangular\""
attr enum circular,rectangular
par HCCNetwork.visualizer.canvasVisualizer.transportRouteVisualizer labelFormat "\"%n\""
par HCCNetwork.visualizer.canvasVisualizer.transportRouteVisualizer labelFont "\"<default>, 8px\""
par HCCNetwork.visualizer.canvasVisualizer.transportRouteVisualizer labelColor "\"\""
par HCCNetwork.visualizer.canvasVisualizer.transportRouteVisualizer fadeOutMode "\"realTime\""
attr enum realTime,animationTime,simulationTime
par HCCNetwork.visualizer.canvasVisualizer.transportRouteVisualizer fadeOutTime 1s
attr unit s
par HCCNetwork.visualizer.canvasVisualizer.transportRouteVisualizer fadeOutAnimationSpeed 0
par HCCNetwork.visualizer.canvasVisualizer.transportRouteVisualizer zIndex 4
par HCCNetwork.visualizer.canvasVisualizer.transportConnectionVisualizer typename "\"inet.visualizer.canvas.transportlayer.TransportConnectionCanvasVisualizer\""
par HCCNetwork.visualizer.canvasVisualizer.transportConnectionVisualizer visualizationTargetModule "\"^.^.^\""
par HCCNetwork.visualizer.canvasVisualizer.transportConnectionVisualizer visualizationSubjectModule "\"^.^.^\""
par HCCNetwork.visualizer.canvasVisualizer.transportConnectionVisualizer tags "\"\""
par HCCNetwork.visualizer.canvasVisualizer.transportConnectionVisualizer networkNodeVisualizerModule "\"^.networkNodeVisualizer\""
par HCCNetwork.visualizer.canvasVisualizer.transportConnectionVisualizer displayTransportConnections false
par HCCNetwork.visualizer.canvasVisualizer.transportConnectionVisualizer sourceNodeFilter "\"*\""
attr mutable ""
par HCCNetwork.visualizer.canvasVisualizer.transportConnectionVisualizer sourcePortFilter "\"*\""
attr mutable ""
par HCCNetwork.visualizer.canvasVisualizer.transportConnectionVisualizer destinationNodeFilter "\"*\""
attr mutable ""
par HCCNetwork.visualizer.canvasVisualizer.transportConnectionVisualizer destinationPortFilter "\"*\""
attr mutable ""
par HCCNetwork.visualizer.canvasVisualizer.transportConnectionVisualizer icon "\"misc/marker_s\""
par HCCNetwork.visualizer.canvasVisualizer.transportConnectionVisualizer iconColor "\"dark\""
par HCCNetwork.visualizer.canvasVisualizer.transportConnectionVisualizer labelFont "\"<default>\""
par HCCNetwork.visualizer.canvasVisualizer.transportConnectionVisualizer labelColor "\"black\""
par HCCNetwork.visualizer.canvasVisualizer.transportConnectionVisualizer placementHint "\"top\""
par HCCNetwork.visualizer.canvasVisualizer.transportConnectionVisualizer placementPriority 0
par HCCNetwork.visualizer.canvasVisualizer.transportConnectionVisualizer zIndex 4
par HCCNetwork.visualizer.canvasVisualizer.failureProtectionConfigurationVisualizer typename "\"inet.visualizer.canvas.configurator.FailureProtectionConfigurationCanvasVisualizer\""
par HCCNetwork.visualizer.canvasVisualizer.failureProtectionConfigurationVisualizer visualizationTargetModule "\"^.^.^\""
par HCCNetwork.visualizer.canvasVisualizer.failureProtectionConfigurationVisualizer visualizationSubjectModule "\"^.^.^\""
par HCCNetwork.visualizer.canvasVisualizer.failureProtectionConfigurationVisualizer tags "\"\""
par HCCNetwork.visualizer.canvasVisualizer.failureProtectionConfigurationVisualizer displayTrees false
par HCCNetwork.visualizer.canvasVisualizer.failureProtectionConfigurationVisualizer lineColor "\"dark\""
par HCCNetwork.visualizer.canvasVisualizer.failureProtectionConfigurationVisualizer lineStyle "\"solid\""
par HCCNetwork.visualizer.canvasVisualizer.failureProtectionConfigurationVisualizer lineWidth 3
par HCCNetwork.visualizer.canvasVisualizer.failureProtectionConfigurationVisualizer lineSmooth false
par HCCNetwork.visualizer.canvasVisualizer.failureProtectionConfigurationVisualizer lineShift 16
par HCCNetwork.visualizer.canvasVisualizer.failureProtectionConfigurationVisualizer lineShiftMode "\"normal\""
par HCCNetwork.visualizer.canvasVisualizer.failureProtectionConfigurationVisualizer lineContactSpacing 3
par HCCNetwork.visualizer.canvasVisualizer.failureProtectionConfigurationVisualizer lineContactMode "\"rectangular\""
attr enum circular,rectangular
par HCCNetwork.visualizer.canvasVisualizer.failureProtectionConfigurationVisualizer failureProtectionConfiguratorModule "\"failureProtectionConfigurator\""
par HCCNetwork.visualizer.canvasVisualizer.failureProtectionConfigurationVisualizer streamFilter "\"*\""
par HCCNetwork.visualizer.canvasVisualizer.failureProtectionConfigurationVisualizer zIndex 3
par HCCNetwork.visualizer.canvasVisualizer.streamRedundancyConfigurationVisualizer typename "\"inet.visualizer.canvas.configurator.StreamRedundancyConfigurationCanvasVisualizer\""
par HCCNetwork.visualizer.canvasVisualizer.streamRedundancyConfigurationVisualizer visualizationTargetModule "\"^.^.^\""
par HCCNetwork.visualizer.canvasVisualizer.streamRedundancyConfigurationVisualizer visualizationSubjectModule "\"^.^.^\""
par HCCNetwork.visualizer.canvasVisualizer.streamRedundancyConfigurationVisualizer tags "\"\""
par HCCNetwork.visualizer.canvasVisualizer.streamRedundancyConfigurationVisualizer displayTrees false
par HCCNetwork.visualizer.canvasVisualizer.streamRedundancyConfigurationVisualizer lineColor "\"dark\""
par HCCNetwork.visualizer.canvasVisualizer.streamRedundancyConfigurationVisualizer lineStyle "\"solid\""
par HCCNetwork.visualizer.canvasVisualizer.streamRedundancyConfigurationVisualizer lineWidth 3
par HCCNetwork.visualizer.canvasVisualizer.streamRedundancyConfigurationVisualizer lineSmooth false
par HCCNetwork.visualizer.canvasVisualizer.streamRedundancyConfigurationVisualizer lineShift 16
par HCCNetwork.visualizer.canvasVisualizer.streamRedundancyConfigurationVisualizer lineShiftMode "\"normal\""
par HCCNetwork.visualizer.canvasVisualizer.streamRedundancyConfigurationVisualizer lineContactSpacing 3
par HCCNetwork.visualizer.canvasVisualizer.streamRedundancyConfigurationVisualizer lineContactMode "\"rectangular\""
attr enum circular,rectangular
par HCCNetwork.visualizer.canvasVisualizer.streamRedundancyConfigurationVisualizer streamRedundancyConfiguratorModule "\"streamRedundancyConfigurator\""
par HCCNetwork.visualizer.canvasVisualizer.streamRedundancyConfigurationVisualizer streamFilter "\"*\""
par HCCNetwork.visualizer.canvasVisualizer.streamRedundancyConfigurationVisualizer zIndex 3
par HCCNetwork.visualizer.canvasVisualizer typename "\"inet.visualizer.canvas.integrated.IntegratedCanvasVisualizer\""
par HCCNetwork.visualizer typename "\"inet.visualizer.common.IntegratedVisualizer\""
par HCCNetwork.configurator typename "\"inet.networklayer.configurator.ipv4.Ipv4NetworkConfigurator\""
par HCCNetwork.configurator minLinkWeight 0.001
par HCCNetwork.configurator configureIsolatedNetworksSeparatly false
par HCCNetwork.configurator config "<config>...</config> at content:1"
par HCCNetwork.configurator assignAddresses true
par HCCNetwork.configurator assignUniqueAddresses true
par HCCNetwork.configurator assignDisjunctSubnetAddresses true
par HCCNetwork.configurator addStaticRoutes true
par HCCNetwork.configurator addDefaultRoutes true
par HCCNetwork.configurator addSubnetRoutes true
par HCCNetwork.configurator addDirectRoutes true
par HCCNetwork.configurator optimizeRoutes true
par HCCNetwork.configurator dumpTopology false
par HCCNetwork.configurator dumpLinks false
par HCCNetwork.configurator dumpAddresses false
par HCCNetwork.configurator dumpRoutes false
par HCCNetwork.configurator dumpConfig "\"\""
par HCCNetwork.radioMedium.propagation typename "\"inet.physicallayer.wireless.common.propagation.ConstantSpeedPropagation\""
par HCCNetwork.radioMedium.propagation propagationSpeed 2.99792e+08mps
attr unit mps
par HCCNetwork.radioMedium.propagation ignoreMovementDuringTransmission true
par HCCNetwork.radioMedium.propagation ignoreMovementDuringPropagation true
par HCCNetwork.radioMedium.propagation ignoreMovementDuringReception true
scalar HCCNetwork.radioMedium.propagation "Arrival computation count" 29165
par HCCNetwork.radioMedium.analogModel typename "\"inet.physicallayer.wireless.common.analogmodel.packetlevel.ScalarAnalogModel\""
par HCCNetwork.radioMedium.analogModel ignorePartialInterference false
par HCCNetwork.radioMedium.backgroundNoise typename "\"inet.physicallayer.wireless.common.backgroundnoise.IsotropicScalarBackgroundNoise\""
par HCCNetwork.radioMedium.backgroundNoise power -110dBm
attr unit dBm
par HCCNetwork.radioMedium.backgroundNoise bandwidth "nan Hz"
attr unit Hz
par HCCNetwork.radioMedium.pathLoss typename "\"inet.physicallayer.wireless.common.pathloss.FreeSpacePathLoss\""
par HCCNetwork.radioMedium.pathLoss alpha 2
par HCCNetwork.radioMedium.pathLoss systemLoss 0dB
attr unit dB
par HCCNetwork.radioMedium.mediumLimitCache typename "\"inet.physicallayer.wireless.common.medium.MediumLimitCache\""
par HCCNetwork.radioMedium.mediumLimitCache centerFrequency 2.4e+09Hz
attr unit Hz
par HCCNetwork.radioMedium.mediumLimitCache maxSpeed "nan mps"
attr unit mps
par HCCNetwork.radioMedium.mediumLimitCache maxTransmissionPower "nan W"
attr unit W
par HCCNetwork.radioMedium.mediumLimitCache minInterferencePower -110dBm
attr unit dBm
par HCCNetwork.radioMedium.mediumLimitCache minReceptionPower -85dBm
attr unit dBm
par HCCNetwork.radioMedium.mediumLimitCache maxAntennaGain 0dB
attr unit dB
par HCCNetwork.radioMedium.mediumLimitCache minInterferenceTime 1e-12s
attr unit s
par HCCNetwork.radioMedium.mediumLimitCache maxTransmissionDuration 0.01s
attr unit s
par HCCNetwork.radioMedium.mediumLimitCache maxCommunicationRange "nan m"
attr unit m
par HCCNetwork.radioMedium.mediumLimitCache maxInterferenceRange "nan m"
attr unit m
par HCCNetwork.radioMedium.communicationCache typename "\"inet.physicallayer.wireless.common.communicationcache.VectorCommunicationCache\""
par HCCNetwork.radioMedium typename "\"inet.physicallayer.wireless.ieee80211.packetlevel.Ieee80211ScalarRadioMedium\""
par HCCNetwork.radioMedium physicalEnvironmentModule "\"physicalEnvironment\""
par HCCNetwork.radioMedium signalAnalogRepresentation "\"scalar\""
attr enum unitDisk,scalar,dimensional
par HCCNetwork.radioMedium rangeFilter "\"\""
par HCCNetwork.radioMedium radioModeFilter false
par HCCNetwork.radioMedium listeningFilter false
par HCCNetwork.radioMedium macAddressFilter false
par HCCNetwork.radioMedium recordTransmissionLog false
par HCCNetwork.radioMedium recordReceptionLog false
scalar HCCNetwork.radioMedium "transmission count" 1535
scalar HCCNetwork.radioMedium "signal send count" 29165
scalar HCCNetwork.radioMedium "reception computation count" 29165
scalar HCCNetwork.radioMedium "interference computation count" 88396
scalar HCCNetwork.radioMedium "reception decision computation count" 6526
scalar HCCNetwork.radioMedium "listening decision computation count" 52771
scalar HCCNetwork.radioMedium "reception cache hit" 79.048282699119
attr unit %
scalar HCCNetwork.radioMedium "interference cache hit" 66.666666666667
attr unit %
scalar HCCNetwork.radioMedium "noise cache hit" 0
attr unit %
scalar HCCNetwork.radioMedium "snir cache hit" 50
attr unit %
scalar HCCNetwork.radioMedium "reception decision cache hit" 50
attr unit %
scalar HCCNetwork.radioMedium "reception result cache hit" 0
attr unit %
par HCCNetwork.host[0].radioIn[0].channel typename "\"ned.IdealChannel\""
par HCCNetwork.host[0].mobility typename "\"inet.mobility.single.RandomWaypointMobility\""
par HCCNetwork.host[0].mobility subjectModule "\"^\""
par HCCNetwork.host[0].mobility coordinateSystemModule "\"\""
par HCCNetwork.host[0].mobility displayStringTextFormat "\"p: %p\\nv: %v\""
attr mutable ""
par HCCNetwork.host[0].mobility updateDisplayString true
par HCCNetwork.host[0].mobility constraintAreaMinX 0m
attr unit m
par HCCNetwork.host[0].mobility constraintAreaMinY 0m
attr unit m
par HCCNetwork.host[0].mobility constraintAreaMinZ 0m
attr unit m
par HCCNetwork.host[0].mobility constraintAreaMaxX 1000m
attr unit m
par HCCNetwork.host[0].mobility constraintAreaMaxY 1000m
attr unit m
par HCCNetwork.host[0].mobility constraintAreaMaxZ 0m
attr unit m
par HCCNetwork.host[0].mobility updateInterval 0.1s
attr unit s
par HCCNetwork.host[0].mobility faceForward true
par HCCNetwork.host[0].mobility initialX 548.814m
attr unit m
par HCCNetwork.host[0].mobility initialY 592.845m
attr unit m
par HCCNetwork.host[0].mobility initialZ 0m
attr unit m
par HCCNetwork.host[0].mobility initFromDisplayString false
par HCCNetwork.host[0].mobility speed "uniform(15mps, 25mps)"
attr unit mps
par HCCNetwork.host[0].mobility waitTime "uniform(1s, 5s)"
attr unit s
par HCCNetwork.host[0].interfaceTable typename "\"inet.networklayer.common.InterfaceTable\""
par HCCNetwork.host[0].interfaceTable displayAddresses false
par HCCNetwork.host[0].cb typename "\"inet.common.MessageDispatcher\""
par HCCNetwork.host[0].cb displayStringTextFormat "\"processed %p pk (%l)\""
par HCCNetwork.host[0].cb forwardServiceRegistration true
par HCCNetwork.host[0].cb forwardProtocolRegistration true
par HCCNetwork.host[0].bl typename "\"inet.common.MessageDispatcher\""
par HCCNetwork.host[0].bl displayStringTextFormat "\"processed %p pk (%l)\""
par HCCNetwork.host[0].bl forwardServiceRegistration true
par HCCNetwork.host[0].bl forwardProtocolRegistration true
par HCCNetwork.host[0].li typename "\"inet.common.MessageDispatcher\""
par HCCNetwork.host[0].li displayStringTextFormat "\"processed %p pk (%l)\""
par HCCNetwork.host[0].li forwardServiceRegistration true
par HCCNetwork.host[0].li forwardProtocolRegistration true
par HCCNetwork.host[0].lo[0].upperLayerIn.channel typename "\"ned.IdealChannel\""
par HCCNetwork.host[0].lo[0].lo.upperLayerOut.channel typename "\"ned.IdealChannel\""
par HCCNetwork.host[0].lo[0].lo typename "\"inet.linklayer.loopback.Loopback\""
par HCCNetwork.host[0].lo[0].lo interfaceTableModule "\"HCCNetwork.host[0].interfaceTable\""
par HCCNetwork.host[0].lo[0].lo mtu 4470B
attr unit B
scalar HCCNetwork.host[0].lo[0].lo rcvdPkFromHl:count 76
attr interpolationmode none
attr recordingmode count
attr source packetReceivedFromUpper
attr title "packets received from higher layer, count"
scalar HCCNetwork.host[0].lo[0].lo rcvdPkFromHl:sum(packetBytes) 3344
attr interpolationmode none
attr recordingmode sum(packetBytes)
attr source packetReceivedFromUpper
attr title "packets received from higher layer, sum(packetBytes)"
scalar HCCNetwork.host[0].lo[0].lo passedUpPk:count 76
attr interpolationmode none
attr recordingmode count
attr source packetSentToUpper
attr title "packets passed to higher layer, count"
scalar HCCNetwork.host[0].lo[0].lo passedUpPk:sum(packetBytes) 3344
attr interpolationmode none
attr recordingmode sum(packetBytes)
attr source packetSentToUpper
attr title "packets passed to higher layer, sum(packetBytes)"
par HCCNetwork.host[0].lo[0] typename "\"inet.linklayer.loopback.LoopbackInterface\""
par HCCNetwork.host[0].lo[0] displayStringTextFormat "\"%a (%i)\\n%m\""
par HCCNetwork.host[0].lo[0] recordPcap false
par HCCNetwork.host[0].lo[0] numPcapRecorders 0
par HCCNetwork.host[0].lo[0] interfaceTableModule "\"HCCNetwork.host[0].interfaceTable\""
scalar HCCNetwork.host[0].lo[0] packetDropInterfaceDown:count 0
attr interpolationmode none
attr recordingmode count
attr source packetDropReasonIsInterfaceDown(packetDropped)
attr title "packet drops: interface down, count"
scalar HCCNetwork.host[0].lo[0] packetDropInterfaceDown:sum(packetBytes) 0
attr interpolationmode none
attr recordingmode sum(packetBytes)
attr source packetDropReasonIsInterfaceDown(packetDropped)
attr title "packet drops: interface down, sum(packetBytes)"
scalar HCCNetwork.host[0].lo[0] packetDropNoCarrier:count 0
attr interpolationmode none
attr recordingmode count
attr source packetDropReasonIsNoCarrier(packetDropped)
attr title "packet drops: no carrier, count"
scalar HCCNetwork.host[0].lo[0] packetDropNoCarrier:sum(packetBytes) 0
attr interpolationmode none
attr recordingmode sum(packetBytes)
attr source packetDropReasonIsNoCarrier(packetDropped)
attr title "packet drops: no carrier, sum(packetBytes)"
par HCCNetwork.host[0].wlan[0].radioIn.channel typename "\"ned.IdealChannel\""
par HCCNetwork.host[0].wlan[0].llc.upperLayerOut.channel typename "\"ned.IdealChannel\""
par HCCNetwork.host[0].wlan[0].upperLayerIn.channel typename "\"ned.IdealChannel\""
par HCCNetwork.host[0].wlan[0].mib typename "\"inet.linklayer.ieee80211.mib.Ieee80211Mib\""
par HCCNetwork.host[0].wlan[0].llc typename "\"inet.linklayer.ieee80211.llc.Ieee80211LlcLpd\""
par HCCNetwork.host[0].wlan[0].llc registerProtocol false
par HCCNetwork.host[0].wlan[0].mgmt typename "\"inet.linklayer.ieee80211.mgmt.Ieee80211MgmtAdhoc\""
par HCCNetwork.host[0].wlan[0].mgmt mibModule "\"HCCNetwork.host[0].wlan[0].mib\""
par HCCNetwork.host[0].wlan[0].mgmt macModule "\"HCCNetwork.host[0].wlan[0].mac\""
par HCCNetwork.host[0].wlan[0].mgmt interfaceTableModule "\"HCCNetwork.host[0].interfaceTable\""
par HCCNetwork.host[0].wlan[0].mac.dcf.channelAccess.pendingQueue typename "\"inet.linklayer.ieee80211.mac.queue.PendingQueue\""
par HCCNetwork.host[0].wlan[0].mac.dcf.channelAccess.pendingQueue displayStringTextFormat "\"contains %p pk (%l) pushed %u\\npulled %o removed %r dropped %d\""
par HCCNetwork.host[0].wlan[0].mac.dcf.channelAccess.pendingQueue packetCapacity 100
par HCCNetwork.host[0].wlan[0].mac.dcf.channelAccess.pendingQueue dataCapacity -1b
attr unit b
par HCCNetwork.host[0].wlan[0].mac.dcf.channelAccess.pendingQueue dropperClass "\"inet::queueing::PacketAtCollectionEndDropper\""
par HCCNetwork.host[0].wlan[0].mac.dcf.channelAccess.pendingQueue comparatorClass "\"inet::ieee80211::MgmtOverDataComparator\""
par HCCNetwork.host[0].wlan[0].mac.dcf.channelAccess.pendingQueue bufferModule "\"\""
scalar HCCNetwork.host[0].wlan[0].mac.dcf.channelAccess.pendingQueue queueLength:last 0
attr autoWarmupFilter false
attr interpolationmode sample-hold
attr recordingmode last
attr source "warmup(atomic(constant0(packetPushEnded) + count(packetPushStarted) - count(packetPulled) - count(packetRemoved) - count(packetDropped)))"
attr title "queue length, last"
attr unit pk
scalar HCCNetwork.host[0].wlan[0].mac.dcf.channelAccess.pendingQueue queueLength:max 1
attr autoWarmupFilter false
attr interpolationmode sample-hold
attr recordingmode max
attr source "warmup(atomic(constant0(packetPushEnded) + count(packetPushStarted) - count(packetPulled) - count(packetRemoved) - count(packetDropped)))"
attr title "queue length, max"
attr unit pk
scalar HCCNetwork.host[0].wlan[0].mac.dcf.channelAccess.pendingQueue queueLength:timeavg 0
attr autoWarmupFilter false
attr interpolationmode sample-hold
attr recordingmode timeavg
attr source "warmup(atomic(constant0(packetPushEnded) + count(packetPushStarted) - count(packetPulled) - count(packetRemoved) - count(packetDropped)))"
attr title "queue length, timeavg"
attr unit pk
scalar HCCNetwork.host[0].wlan[0].mac.dcf.channelAccess.pendingQueue queueBitLength:last 0
attr autoWarmupFilter false
attr interpolationmode sample-hold
attr recordingmode last
attr source "warmup(atomic(constant0(packetPushEnded) + sum(packetLength(packetPushStarted)) - sum(packetLength(packetPulled)) - sum(packetLength(packetRemoved)) - sum(packetLength(packetDropped))))"
attr title "queue bit length, last"
attr unit b
scalar HCCNetwork.host[0].wlan[0].mac.dcf.channelAccess.pendingQueue queueBitLength:max 640
attr autoWarmupFilter false
attr interpolationmode sample-hold
attr recordingmode max
attr source "warmup(atomic(constant0(packetPushEnded) + sum(packetLength(packetPushStarted)) - sum(packetLength(packetPulled)) - sum(packetLength(packetRemoved)) - sum(packetLength(packetDropped))))"
attr title "queue bit length, max"
attr unit b
scalar HCCNetwork.host[0].wlan[0].mac.dcf.channelAccess.pendingQueue queueBitLength:timeavg 0
attr autoWarmupFilter false
attr interpolationmode sample-hold
attr recordingmode timeavg
attr source "warmup(atomic(constant0(packetPushEnded) + sum(packetLength(packetPushStarted)) - sum(packetLength(packetPulled)) - sum(packetLength(packetRemoved)) - sum(packetLength(packetDropped))))"
attr title "queue bit length, timeavg"
attr unit b
statistic HCCNetwork.host[0].wlan[0].mac.dcf.channelAccess.pendingQueue queueingTime:histogram
field count 76
field mean 0
field stddev 0
field min 0
field max 0
field sum 0
field sqrsum 0
attr interpolationmode none
attr recordingmode histogram
attr source queueingTime(packetPulled)
attr title "queueing times"
attr unit s
bin	-inf	0
bin	-0.5	0
bin	-0.48	0
bin	-0.46	0
bin	-0.44	0
bin	-0.42	0
bin	-0.4	0
bin	-0.38	0
bin	-0.36	0
bin	-0.34	0
bin	-0.32	0
bin	-0.3	0
bin	-0.28	0
bin	-0.26	0
bin	-0.24	0
bin	-0.22	0
bin	-0.2	0
bin	-0.18	0
bin	-0.16	0
bin	-0.14	0
bin	-0.12	0
bin	-0.1	0
bin	-0.08	0
bin	-0.06	0
bin	-0.04	0
bin	-0.02	0
bin	0	76
bin	0.02	0
bin	0.04	0
bin	0.06	0
bin	0.08	0
bin	0.1	0
bin	0.12	0
bin	0.14	0
bin	0.16	0
bin	0.18	0
bin	0.2	0
bin	0.22	0
bin	0.24	0
bin	0.26	0
bin	0.28	0
bin	0.3	0
bin	0.32	0
bin	0.34	0
bin	0.36	0
bin	0.38	0
bin	0.4	0
bin	0.42	0
bin	0.44	0
bin	0.46	0
bin	0.48	0
bin	0.5	0
scalar HCCNetwork.host[0].wlan[0].mac.dcf.channelAccess.pendingQueue outgoingPackets:count 76
attr recordingmode count
attr source packetPulled
attr title "outgoing packets, count"
attr unit pk
scalar HCCNetwork.host[0].wlan[0].mac.dcf.channelAccess.pendingQueue outgoingPacketLengths:sum 48640
attr interpolationmode none
attr recordingmode sum
attr source packetLength(packetPulled)
attr title "outgoing packet lengths, sum"
attr unit b
statistic HCCNetwork.host[0].wlan[0].mac.dcf.channelAccess.pendingQueue outgoingPacketLengths:histogram
field count 76
field mean 640
field stddev 0
field min 640
field max 640
field sum 48640
field sqrsum 31129600
attr interpolationmode none
attr recordingmode histogram
attr source packetLength(packetPulled)
attr title "outgoing packet lengths"
attr unit b
bin	-inf	0
bin	639	0
bin	640	76
bin	641	0
statistic HCCNetwork.host[0].wlan[0].mac.dcf.channelAccess.pendingQueue flowQueueingTime:histogram
field count 0
field mean -nan
field stddev nan
field min nan
field max nan
field sum 0
field sqrsum 0
attr interpolationmode none
attr recordingmode histogram
attr source queueingTime(demuxFlow(packetPulled))
attr title "flow queueing times"
attr unit s
bin	-inf	0
bin	0	0
bin	1	0
scalar HCCNetwork.host[0].wlan[0].mac.dcf.channelAccess.pendingQueue incomingPackets:count 76
attr recordingmode count
attr source packetPushStarted
attr title "incoming packets, count"
attr unit pk
scalar HCCNetwork.host[0].wlan[0].mac.dcf.channelAccess.pendingQueue incomingPacketLengths:sum 48640
attr interpolationmode none
attr recordingmode sum
attr source packetLength(packetPushStarted)
attr title "incoming packet lengths, sum"
attr unit b
statistic HCCNetwork.host[0].wlan[0].mac.dcf.channelAccess.pendingQueue incomingPacketLengths:histogram
field count 76
field mean 640
field stddev 0
field min 640
field max 640
field sum 48640
field sqrsum 31129600
attr interpolationmode none
attr recordingmode histogram
attr source packetLength(packetPushStarted)
attr title "incoming packet lengths"
attr unit b
bin	-inf	0
bin	639	0
bin	640	76
bin	641	0
scalar HCCNetwork.host[0].wlan[0].mac.dcf.channelAccess.pendingQueue droppedPacketsQueueOverflow:count 0
attr interpolationmode none
attr recordingmode count
attr source packetDropReasonIsQueueOverflow(packetDropped)
attr title "dropped packets: queue overflow, count"
attr unit pk
scalar HCCNetwork.host[0].wlan[0].mac.dcf.channelAccess.pendingQueue droppedPacketLengthsQueueOverflow:sum 0
attr interpolationmode none
attr recordingmode sum
attr source packetLength(packetDropReasonIsQueueOverflow(packetDropped))
attr title "dropped packet lengths: queue overflow, sum"
attr unit b
par HCCNetwork.host[0].wlan[0].mac.dcf.channelAccess.inProgressFrames typename "\"inet.linklayer.ieee80211.mac.queue.InProgressFrames\""
par HCCNetwork.host[0].wlan[0].mac.dcf.channelAccess.inProgressFrames pendingQueueModule "\"^.pendingQueue\""
par HCCNetwork.host[0].wlan[0].mac.dcf.channelAccess.inProgressFrames originatorMacDataServiceModule "\"^.^.originatorMacDataService\""
par HCCNetwork.host[0].wlan[0].mac.dcf.channelAccess.inProgressFrames ackHandlerModule "\"^.^.ackHandler\""
statistic HCCNetwork.host[0].wlan[0].mac.dcf.channelAccess.inProgressFrames queueingTime:histogram
field count 76
field mean 5.4e-05
field stddev 0
field min 5.4e-05
field max 5.4e-05
field sum 0.004104
field sqrsum 2.21616e-07
attr interpolationmode none
attr recordingmode histogram
attr source queueingTime(packetDequeued)
attr title "queueing times"
bin	-inf	0
bin	0	76
bin	0.01	0
bin	0.02	0
bin	0.03	0
bin	0.04	0
bin	0.05	0
bin	0.06	0
bin	0.07	0
bin	0.08	0
bin	0.09	0
bin	0.1	0
bin	0.11	0
bin	0.12	0
bin	0.13	0
bin	0.14	0
bin	0.15	0
bin	0.16	0
bin	0.17	0
bin	0.18	0
bin	0.19	0
bin	0.2	0
bin	0.21	0
bin	0.22	0
bin	0.23	0
bin	0.24	0
bin	0.25	0
bin	0.26	0
bin	0.27	0
bin	0.28	0
bin	0.29	0
bin	0.3	0
bin	0.31	0
bin	0.32	0
bin	0.33	0
bin	0.34	0
bin	0.35	0
bin	0.36	0
bin	0.37	0
bin	0.38	0
bin	0.39	0
bin	0.4	0
bin	0.41	0
bin	0.42	0
bin	0.43	0
bin	0.44	0
bin	0.45	0
bin	0.46	0
bin	0.47	0
bin	0.48	0
bin	0.49	0
bin	0.5	0
bin	0.51	0
scalar HCCNetwork.host[0].wlan[0].mac.dcf.channelAccess.inProgressFrames queueLength:max 1
attr autoWarmupFilter false
attr interpolationmode sample-hold
attr recordingmode max
attr source "warmup(count(packetEnqueued) - count(packetDequeued))"
attr title "queue length, max"
scalar HCCNetwork.host[0].wlan[0].mac.dcf.channelAccess.inProgressFrames queueLength:timeavg 5.3951073450261e-05
attr autoWarmupFilter false
attr interpolationmode sample-hold
attr recordingmode timeavg
attr source "warmup(count(packetEnqueued) - count(packetDequeued))"
attr title "queue length, timeavg"
par HCCNetwork.host[0].wlan[0].mac.dcf.channelAccess.contention typename "\"inet.linklayer.ieee80211.mac.contention.Contention\""
par HCCNetwork.host[0].wlan[0].mac.dcf.channelAccess.contention initialChannelBusy true
par HCCNetwork.host[0].wlan[0].mac.dcf.channelAccess.contention backoffOptimization true
scalar HCCNetwork.host[0].wlan[0].mac.dcf.channelAccess.contention channelAccessGranted:count 76
attr recordingmode count
attr title "channel access granted, count"
scalar HCCNetwork.host[0].wlan[0].mac.dcf.channelAccess.contention stateChanged:count 2258
attr enum IDLE,DEFER,IFS_AND_BACKOFF
attr interpolationmode none
attr recordingmode count
attr title "contention state changed, count"
attr type enum
par HCCNetwork.host[0].wlan[0].mac.dcf.channelAccess typename "\"inet.linklayer.ieee80211.mac.channelaccess.Dcaf\""
par HCCNetwork.host[0].wlan[0].mac.dcf.channelAccess difsn -1
par HCCNetwork.host[0].wlan[0].mac.dcf.channelAccess cwMin -1
par HCCNetwork.host[0].wlan[0].mac.dcf.channelAccess cwMax -1
par HCCNetwork.host[0].wlan[0].mac.dcf.channelAccess rxModule "\"^.^.rx\""
scalar HCCNetwork.host[0].wlan[0].mac.dcf.channelAccess channelOwnershipChanged:count 152
attr interpolationmode sample-hold
attr recordingmode count
attr title "channel ownership, count"
par HCCNetwork.host[0].wlan[0].mac.dcf.originatorMacDataService.fragmentationPolicy typename "\"inet.linklayer.ieee80211.mac.fragmentation.BasicFragmentationPolicy\""
par HCCNetwork.host[0].wlan[0].mac.dcf.originatorMacDataService.fragmentationPolicy fragmentationThreshold 1500B
attr unit B
par HCCNetwork.host[0].wlan[0].mac.dcf.originatorMacDataService typename "\"inet.linklayer.ieee80211.mac.originator.OriginatorMacDataService\""
scalar HCCNetwork.host[0].wlan[0].mac.dcf.originatorMacDataService packetAggregated:count 0
attr recordingmode count
attr title "packets aggregated, count"
scalar HCCNetwork.host[0].wlan[0].mac.dcf.originatorMacDataService packetFragmented:count 0
attr recordingmode count
attr title "packets fragmented, count"
par HCCNetwork.host[0].wlan[0].mac.dcf.recipientMacDataService typename "\"inet.linklayer.ieee80211.mac.recipient.RecipientMacDataService\""
scalar HCCNetwork.host[0].wlan[0].mac.dcf.recipientMacDataService packetDeaggregated:count 0
attr recordingmode count
attr title "packets deaggregated, count"
scalar HCCNetwork.host[0].wlan[0].mac.dcf.recipientMacDataService packetDefragmented:count 411
attr recordingmode count
attr title "packets defragmented, count"
scalar HCCNetwork.host[0].wlan[0].mac.dcf.recipientMacDataService packetDropDuplicateDetected:count 0
attr interpolationmode none
attr recordingmode count
attr source packetDropReasonIsDuplicateDetected(packetDropped)
attr title "packet drops: duplicate detected, count"
scalar HCCNetwork.host[0].wlan[0].mac.dcf.recipientMacDataService packetDropDuplicateDetected:sum(packetBytes) 0
attr interpolationmode none
attr recordingmode sum(packetBytes)
attr source packetDropReasonIsDuplicateDetected(packetDropped)
attr title "packet drops: duplicate detected, sum(packetBytes)"
par HCCNetwork.host[0].wlan[0].mac.dcf.rateSelection typename "\"inet.linklayer.ieee80211.mac.rateselection.RateSelection\""
par HCCNetwork.host[0].wlan[0].mac.dcf.rateSelection rateControlModule "\"^.rateControl\""
par HCCNetwork.host[0].wlan[0].mac.dcf.rateSelection multicastFrameBitrate -1bps
attr unit bps
[...]
attr title "Radio reception state, count"
scalar HCCNetwork.host[19].wlan[0].radio transmissionState:count 308
attr interpolationmode sample-hold
attr recordingmode count
attr source transmissionStateChanged
attr title "Radio transmission state, count"
statistic HCCNetwork.host[19].wlan[0].radio minSnir:histogram
field count 389
field mean 1266.4697962245
field stddev 3460.4152698119
field min 0.47597921199662
field max 49210.304790295
field sum 492656.75073134
field sqrsum 5270030744.4518
attr recordingmode histogram
attr source minimumSnir(packetSentToUpper)
attr title "Min SNIR"
bin	-inf	0
bin	0	291
bin	1000	63
bin	2000	9
bin	3000	9
bin	4000	5
bin	5000	2
bin	6000	1
bin	7000	0
bin	8000	2
bin	9000	0
bin	10000	0
bin	11000	1
bin	12000	1
bin	13000	0
bin	14000	0
bin	15000	0
bin	16000	1
bin	17000	1
bin	18000	0
bin	19000	0
bin	20000	0
bin	21000	1
bin	22000	0
bin	23000	0
bin	24000	0
bin	25000	0
bin	26000	0
bin	27000	0
bin	28000	1
bin	29000	0
bin	30000	0
bin	31000	0
bin	32000	0
bin	33000	0
bin	34000	0
bin	35000	0
bin	36000	0
bin	37000	0
bin	38000	0
bin	39000	0
bin	40000	0
bin	41000	0
bin	42000	0
bin	43000	0
bin	44000	0
bin	45000	0
bin	46000	0
bin	47000	0
bin	48000	0
bin	49000	1
bin	50000	0
bin	51000	0
bin	52000	0
bin	53000	0
bin	54000	0
bin	55000	0
bin	56000	0
bin	57000	0
bin	58000	0
bin	59000	0
bin	60000	0
bin	61000	0
bin	62000	0
statistic HCCNetwork.host[19].wlan[0].radio packetErrorRate:histogram
field count 389
field mean 0.088519636705802
field stddev 0.27799810491709
field min 0
field max 1
field sum 34.434138678557
field sqrsum 33.03388062505
attr recordingmode histogram
attr source packetErrorRate(packetSentToUpper)
attr title "Packet error rate"
bin	-inf	0
bin	-0.5	0
bin	-0.48	0
bin	-0.46	0
bin	-0.44	0
bin	-0.42	0
bin	-0.4	0
bin	-0.38	0
bin	-0.36	0
bin	-0.34	0
bin	-0.32	0
bin	-0.3	0
bin	-0.28	0
bin	-0.26	0
bin	-0.24	0
bin	-0.22	0
bin	-0.2	0
bin	-0.18	0
bin	-0.16	0
bin	-0.14	0
bin	-0.12	0
bin	-0.1	0
bin	-0.08	0
bin	-0.06	0
bin	-0.04	0
bin	-0.02	0
bin	0	347
bin	0.02	3
bin	0.04	0
bin	0.06	1
bin	0.08	0
bin	0.1	1
bin	0.12	0
bin	0.14	0
bin	0.16	0
bin	0.18	1
bin	0.2	0
bin	0.22	0
bin	0.24	0
bin	0.26	0
bin	0.28	0
bin	0.3	0
bin	0.32	1
bin	0.34	0
bin	0.36	1
bin	0.38	0
bin	0.4	0
bin	0.42	0
bin	0.44	0
bin	0.46	0
bin	0.48	0
bin	0.5	0
bin	0.52	0
bin	0.54	0
bin	0.56	0
bin	0.58	0
bin	0.6	0
bin	0.62	0
bin	0.64	1
bin	0.66	0
bin	0.68	1
bin	0.7	0
bin	0.72	0
bin	0.74	0
bin	0.76	0
bin	0.78	0
bin	0.8	0
bin	0.82	0
bin	0.84	0
bin	0.86	0
bin	0.88	0
bin	0.9	0
bin	0.92	1
bin	0.94	0
bin	0.96	0
bin	0.98	3
bin	1	28
bin	1.02	0
statistic HCCNetwork.host[19].wlan[0].radio bitErrorRate:histogram
field count 0
field mean -nan
field stddev nan
field min nan
field max nan
field sum 0
field sqrsum 0
attr recordingmode histogram
attr source bitErrorRate(packetSentToUpper)
attr title "Bit error rate"
bin	-inf	0
bin	0	0
bin	1	0
statistic HCCNetwork.host[19].wlan[0].radio symbolErrorRate:histogram
field count 0
field mean -nan
field stddev nan
field min nan
field max nan
field sum 0
field sqrsum 0
attr recordingmode histogram
attr source symbolErrorRate(packetSentToUpper)
attr title "Symbol error rate"
bin	-inf	0
bin	0	0
bin	1	0
par HCCNetwork.host[19].wlan[0] typename "\"inet.linklayer.ieee80211.Ieee80211Interface\""
par HCCNetwork.host[19].wlan[0] displayStringTextFormat "\"%a (%i)\\n%m\""
par HCCNetwork.host[19].wlan[0] recordPcap false
par HCCNetwork.host[19].wlan[0] numPcapRecorders 0
par HCCNetwork.host[19].wlan[0] interfaceTableModule "\"HCCNetwork.host[19].interfaceTable\""
par HCCNetwork.host[19].wlan[0] energySourceModule "\"\""
par HCCNetwork.host[19].wlan[0] opMode "\"g(mixed)\""
attr enum a,b,g(erp),g(mixed),n(mixed-2.4Ghz),p,ac
par HCCNetwork.host[19].wlan[0] address "\"0A-AA-00-00-00-14\""
attr mutable ""
par HCCNetwork.host[19].wlan[0] protocol "\"\""
par HCCNetwork.host[19].wlan[0] bitrate -1bps
attr unit bps
scalar HCCNetwork.host[19].wlan[0] packetDropInterfaceDown:count 0
attr interpolationmode none
attr recordingmode count
attr source packetDropReasonIsInterfaceDown(packetDropped)
attr title "packet drops: interface down, count"
scalar HCCNetwork.host[19].wlan[0] packetDropInterfaceDown:sum(packetBytes) 0
attr interpolationmode none
attr recordingmode sum(packetBytes)
attr source packetDropReasonIsInterfaceDown(packetDropped)
attr title "packet drops: interface down, sum(packetBytes)"
scalar HCCNetwork.host[19].wlan[0] packetDropNoCarrier:count 0
attr interpolationmode none
attr recordingmode count
attr source packetDropReasonIsNoCarrier(packetDropped)
attr title "packet drops: no carrier, count"
scalar HCCNetwork.host[19].wlan[0] packetDropNoCarrier:sum(packetBytes) 0
attr interpolationmode none
attr recordingmode sum(packetBytes)
attr source packetDropReasonIsNoCarrier(packetDropped)
attr title "packet drops: no carrier, sum(packetBytes)"
par HCCNetwork.host[19].ipv4.transportIn.channel typename "\"ned.IdealChannel\""
par HCCNetwork.host[19].ipv4.up.out[0].channel typename "\"ned.IdealChannel\""
par HCCNetwork.host[19].ipv4.lp.out[2].channel typename "\"ned.IdealChannel\""
par HCCNetwork.host[19].ipv4.ifIn.channel typename "\"ned.IdealChannel\""
par HCCNetwork.host[19].ipv4.configurator typename "\"inet.networklayer.configurator.ipv4.Ipv4NodeConfigurator\""
par HCCNetwork.host[19].ipv4.configurator interfaceTableModule "\"HCCNetwork.host[19].interfaceTable\""
par HCCNetwork.host[19].ipv4.configurator routingTableModule "\"HCCNetwork.host[19].ipv4.routingTable\""
par HCCNetwork.host[19].ipv4.configurator networkConfiguratorModule "\"configurator\""
par HCCNetwork.host[19].ipv4.configurator configureRoutingTable true
par HCCNetwork.host[19].ipv4.routingTable typename "\"inet.networklayer.ipv4.Ipv4RoutingTable\""
par HCCNetwork.host[19].ipv4.routingTable interfaceTableModule "\"HCCNetwork.host[19].interfaceTable\""
par HCCNetwork.host[19].ipv4.routingTable routerId "\"auto\""
par HCCNetwork.host[19].ipv4.routingTable netmaskRoutes "\"*\""
par HCCNetwork.host[19].ipv4.routingTable forwarding true
par HCCNetwork.host[19].ipv4.routingTable multicastForwarding false
par HCCNetwork.host[19].ipv4.routingTable useAdminDist false
par HCCNetwork.host[19].ipv4.routingTable routingFile "\"\""
par HCCNetwork.host[19].ipv4.natTable typename "\"inet.networklayer.ipv4.Ipv4NatTable\""
par HCCNetwork.host[19].ipv4.natTable networkProtocolModule "\"^.ip\""
par HCCNetwork.host[19].ipv4.natTable config "<config/> at content:1"
par HCCNetwork.host[19].ipv4.up typename "\"inet.common.MessageDispatcher\""
par HCCNetwork.host[19].ipv4.up displayStringTextFormat "\"processed %p pk (%l)\""
par HCCNetwork.host[19].ipv4.up forwardServiceRegistration true
par HCCNetwork.host[19].ipv4.up forwardProtocolRegistration true
par HCCNetwork.host[19].ipv4.igmp typename "\"inet.networklayer.ipv4.Igmpv2\""
par HCCNetwork.host[19].ipv4.igmp interfaceTableModule "\"HCCNetwork.host[19].interfaceTable\""
par HCCNetwork.host[19].ipv4.igmp routingTableModule "\"HCCNetwork.host[19].ipv4.routingTable\""
par HCCNetwork.host[19].ipv4.igmp crcMode "\"declared\""
attr enum declared,computed
par HCCNetwork.host[19].ipv4.igmp enabled true
par HCCNetwork.host[19].ipv4.igmp robustnessVariable 2
par HCCNetwork.host[19].ipv4.igmp queryInterval 125s
attr unit s
par HCCNetwork.host[19].ipv4.igmp queryResponseInterval 10s
attr unit s
par HCCNetwork.host[19].ipv4.igmp groupMembershipInterval 260s
attr unit s
par HCCNetwork.host[19].ipv4.igmp otherQuerierPresentInterval 255s
attr unit s
par HCCNetwork.host[19].ipv4.igmp startupQueryInterval 31.25s
attr unit s
par HCCNetwork.host[19].ipv4.igmp startupQueryCount 2
par HCCNetwork.host[19].ipv4.igmp lastMemberQueryInterval 1s
attr unit s
par HCCNetwork.host[19].ipv4.igmp lastMemberQueryCount 2
par HCCNetwork.host[19].ipv4.igmp unsolicitedReportInterval 10s
attr unit s
par HCCNetwork.host[19].ipv4.icmp typename "\"inet.networklayer.ipv4.Icmp\""
par HCCNetwork.host[19].ipv4.icmp interfaceTableModule "\"HCCNetwork.host[19].interfaceTable\""
par HCCNetwork.host[19].ipv4.icmp routingTableModule "\"HCCNetwork.host[19].ipv4.routingTable\""
par HCCNetwork.host[19].ipv4.icmp crcMode "\"declared\""
attr enum declared,computed
attr mutable ""
par HCCNetwork.host[19].ipv4.icmp quoteLength 8B
attr mutable ""
attr unit B
par HCCNetwork.host[19].ipv4.mp typename "\"inet.common.MessageDispatcher\""
par HCCNetwork.host[19].ipv4.mp displayStringTextFormat "\"processed %p pk (%l)\""
par HCCNetwork.host[19].ipv4.mp forwardServiceRegistration true
par HCCNetwork.host[19].ipv4.mp forwardProtocolRegistration true
par HCCNetwork.host[19].ipv4.ip typename "\"inet.networklayer.ipv4.Ipv4\""
par HCCNetwork.host[19].ipv4.ip interfaceTableModule "\"HCCNetwork.host[19].interfaceTable\""
par HCCNetwork.host[19].ipv4.ip routingTableModule "\"HCCNetwork.host[19].ipv4.routingTable\""
par HCCNetwork.host[19].ipv4.ip arpModule "\"HCCNetwork.host[19].ipv4.arp\""
par HCCNetwork.host[19].ipv4.ip icmpModule "\"HCCNetwork.host[19].ipv4.icmp\""
par HCCNetwork.host[19].ipv4.ip crcMode "\"declared\""
attr enum declared,computed
par HCCNetwork.host[19].ipv4.ip timeToLive 32
par HCCNetwork.host[19].ipv4.ip multicastTimeToLive 32
par HCCNetwork.host[19].ipv4.ip fragmentTimeout 60s
attr unit s
par HCCNetwork.host[19].ipv4.ip limitedBroadcast false
par HCCNetwork.host[19].ipv4.ip directBroadcastInterfaces "\"\""
scalar HCCNetwork.host[19].ipv4.ip packetDropAddressResolutionFailed:count 0
attr interpolationmode none
attr recordingmode count
attr source packetDropReasonIsAddressResolutionFailed(packetDropped)
attr title "packet drop: address resolution failed, count"
scalar HCCNetwork.host[19].ipv4.ip packetDropAddressResolutionFailed:sum(packetBytes) 0
attr interpolationmode none
attr recordingmode sum(packetBytes)
attr source packetDropReasonIsAddressResolutionFailed(packetDropped)
attr title "packet drop: address resolution failed, sum(packetBytes)"
scalar HCCNetwork.host[19].ipv4.ip packetDropHopLimitReached:count 0
attr interpolationmode none
attr recordingmode count
attr source packetDropReasonIsHopLimitReached(packetDropped)
attr title "packet drop: hop limit reached, count"
scalar HCCNetwork.host[19].ipv4.ip packetDropHopLimitReached:sum(packetBytes) 0
attr interpolationmode none
attr recordingmode sum(packetBytes)
attr source packetDropReasonIsHopLimitReached(packetDropped)
attr title "packet drop: hop limit reached, sum(packetBytes)"
scalar HCCNetwork.host[19].ipv4.ip packetDropForwardingDisabled:count 0
attr interpolationmode none
attr recordingmode count
attr source packetDropReasonIsForwardingDisabled(packetDropped)
attr title "packet drop: forwarding disabled, count"
scalar HCCNetwork.host[19].ipv4.ip packetDropForwardingDisabled:sum(packetBytes) 0
attr interpolationmode none
attr recordingmode sum(packetBytes)
attr source packetDropReasonIsForwardingDisabled(packetDropped)
attr title "packet drop: forwarding disabled, sum(packetBytes)"
scalar HCCNetwork.host[19].ipv4.ip packetDropNoInterfaceFound:count 0
attr interpolationmode none
attr recordingmode count
attr source packetDropReasonIsNoInterfaceFound(packetDropped)
attr title "packet drop: no interface found, count"
scalar HCCNetwork.host[19].ipv4.ip packetDropNoInterfaceFound:sum(packetBytes) 0
attr interpolationmode none
attr recordingmode sum(packetBytes)
attr source packetDropReasonIsNoInterfaceFound(packetDropped)
attr title "packet drop: no interface found, sum(packetBytes)"
scalar HCCNetwork.host[19].ipv4.ip packetDropNoRouteFound:count 0
attr interpolationmode none
attr recordingmode count
attr source packetDropReasonIsNoRouteFound(packetDropped)
attr title "packet drop: no route found, count"
scalar HCCNetwork.host[19].ipv4.ip packetDropNoRouteFound:sum(packetBytes) 0
attr interpolationmode none
attr recordingmode sum(packetBytes)
attr source packetDropReasonIsNoRouteFound(packetDropped)
attr title "packet drop: no route found, sum(packetBytes)"
scalar HCCNetwork.host[19].ipv4.ip packetDropUndefined:count 0
attr interpolationmode none
attr recordingmode count
attr source packetDropReasonIsUndefined(packetDropped)
attr title "packet drop: undefined, count"
scalar HCCNetwork.host[19].ipv4.ip packetDropUndefined:sum(packetBytes) 0
attr interpolationmode none
attr recordingmode sum(packetBytes)
attr source packetDropReasonIsUndefined(packetDropped)
attr title "packet drop: undefined, sum(packetBytes)"
par HCCNetwork.host[19].ipv4.arp typename "\"inet.networklayer.arp.ipv4.Arp\""
par HCCNetwork.host[19].ipv4.arp interfaceTableModule "\"HCCNetwork.host[19].interfaceTable\""
par HCCNetwork.host[19].ipv4.arp routingTableModule "\"HCCNetwork.host[19].ipv4.routingTable\""
par HCCNetwork.host[19].ipv4.arp retryTimeout 1s
attr unit s
par HCCNetwork.host[19].ipv4.arp retryCount 3
par HCCNetwork.host[19].ipv4.arp cacheTimeout 120s
attr unit s
par HCCNetwork.host[19].ipv4.arp proxyArpInterfaces "\"\""
scalar HCCNetwork.host[19].ipv4.arp arpResolutionFailed:count 0
attr recordingmode count
attr title "ARP failed resolutions, count"
scalar HCCNetwork.host[19].ipv4.arp arpResolutionCompleted:count 0
attr recordingmode count
attr title "ARP completed resolutions, count"
scalar HCCNetwork.host[19].ipv4.arp arpResolutionInitiated:count 0
attr recordingmode count
attr title "ARP initiated resolutions, count"
scalar HCCNetwork.host[19].ipv4.arp arpReplySent:count 0
attr recordingmode count
attr source arpReplySent
attr title "ARP replies sent, count"
scalar HCCNetwork.host[19].ipv4.arp arpReplySent:sum(packetBytes) 0
attr recordingmode sum(packetBytes)
attr source arpReplySent
attr title "ARP replies sent, sum(packetBytes)"
scalar HCCNetwork.host[19].ipv4.arp arpRequestSent:count 0
attr recordingmode count
attr source arpRequestSent
attr title "ARP request sent, count"
scalar HCCNetwork.host[19].ipv4.arp arpRequestSent:sum(packetBytes) 0
attr recordingmode sum(packetBytes)
attr source arpRequestSent
attr title "ARP request sent, sum(packetBytes)"
par HCCNetwork.host[19].ipv4.lp typename "\"inet.common.MessageDispatcher\""
par HCCNetwork.host[19].ipv4.lp displayStringTextFormat "\"processed %p pk (%l)\""
par HCCNetwork.host[19].ipv4.lp forwardServiceRegistration true
par HCCNetwork.host[19].ipv4.lp forwardProtocolRegistration true
par HCCNetwork.host[19].ipv4 typename "\"inet.networklayer.ipv4.Ipv4NetworkLayer\""
par HCCNetwork.host[19].ipv4 forwarding true
par HCCNetwork.host[19].ipv4 multicastForwarding false
par HCCNetwork.host[19].ipv4 interfaceTableModule "\"HCCNetwork.host[19].interfaceTable\""
par HCCNetwork.host[19].ipv4 displayStringTextFormat "\"%i\""
par HCCNetwork.host[19].nl typename "\"inet.common.MessageDispatcher\""
par HCCNetwork.host[19].nl displayStringTextFormat "\"processed %p pk (%l)\""
par HCCNetwork.host[19].nl forwardServiceRegistration true
par HCCNetwork.host[19].nl forwardProtocolRegistration true
par HCCNetwork.host[19].udp typename "\"inet.transportlayer.udp.Udp\""
par HCCNetwork.host[19].udp interfaceTableModule "\"HCCNetwork.host[19].interfaceTable\""
par HCCNetwork.host[19].udp icmpModule "\"^.ipv4.icmp\""
par HCCNetwork.host[19].udp icmpv6Module "\"^.ipv6.icmpv6\""
par HCCNetwork.host[19].udp crcMode "\"declared\""
attr enum disabled,declared,computed
par HCCNetwork.host[19].udp defaultMulticastLoop true
scalar HCCNetwork.host[19].udp packetReceived:count 432
attr interpolationmode none
attr recordingmode count
attr source packetReceived
attr title "packets received, count"
scalar HCCNetwork.host[19].udp packetReceived:sum(packetBytes) 10368
attr interpolationmode none
attr recordingmode sum(packetBytes)
attr source packetReceived
attr title "packets received, sum(packetBytes)"
scalar HCCNetwork.host[19].udp packetSent:count 77
attr interpolationmode none
attr recordingmode count
attr source packetSent
attr title "packets sent, count"
scalar HCCNetwork.host[19].udp packetSent:sum(packetBytes) 1848
attr interpolationmode none
attr recordingmode sum(packetBytes)
attr source packetSent
attr title "packets sent, sum(packetBytes)"
scalar HCCNetwork.host[19].udp passedUpPk:count 432
attr interpolationmode none
attr recordingmode count
attr source packetSentToUpper
attr title "packets passed up, count"
scalar HCCNetwork.host[19].udp droppedPkWrongPort:count 0
attr interpolationmode none
attr recordingmode count
attr source packetDropReasonIsNoPortFound(packetDropped)
attr title "packets dropped (wrong port), count"
scalar HCCNetwork.host[19].udp droppedPkBadChecksum:count 0
attr interpolationmode none
attr recordingmode count
attr source packetDropReasonIsIncorrectlyReceived(packetDropped)
attr title "packets dropped (checksum error), count"
par HCCNetwork.host[19].tcp typename "\"inet.transportlayer.tcp.Tcp\""
par HCCNetwork.host[19].tcp crcMode "\"declared\""
attr enum declared,computed
par HCCNetwork.host[19].tcp advertisedWindow 7504
par HCCNetwork.host[19].tcp delayedAcksEnabled false
par HCCNetwork.host[19].tcp nagleEnabled true
par HCCNetwork.host[19].tcp limitedTransmitEnabled false
par HCCNetwork.host[19].tcp increasedIWEnabled false
par HCCNetwork.host[19].tcp sackSupport false
par HCCNetwork.host[19].tcp windowScalingSupport false
par HCCNetwork.host[19].tcp windowScalingFactor -1
par HCCNetwork.host[19].tcp timestampSupport false
par HCCNetwork.host[19].tcp mss 536
par HCCNetwork.host[19].tcp msl 120s
attr unit s
par HCCNetwork.host[19].tcp tcpAlgorithmClass "\"TcpReno\""
par HCCNetwork.host[19].tcp useDataNotification false
par HCCNetwork.host[19].tcp dupthresh 3
par HCCNetwork.host[19].tcp initialSsthresh 4294967295
par HCCNetwork.host[19].tcp stopOperationExtraTime 0s
attr unit s
par HCCNetwork.host[19].tcp stopOperationTimeout 2s
attr unit s
par HCCNetwork.host[19].tcp ecnWillingness false
par HCCNetwork.host[19].tcp dctcpGamma 0.0625
par HCCNetwork.host[19].tn typename "\"inet.common.MessageDispatcher\""
par HCCNetwork.host[19].tn displayStringTextFormat "\"processed %p pk (%l)\""
par HCCNetwork.host[19].tn forwardServiceRegistration true
par HCCNetwork.host[19].tn forwardProtocolRegistration true
par HCCNetwork.host[19].app[0] typename "\"src.HCCApp\""
par HCCNetwork.host[19].app[0] localPort 5000
par HCCNetwork.host[19].app[0] destPort 5000
par HCCNetwork.host[19].app[0] destAddress "\"224.0.0.1\""
par HCCNetwork.host[19].app[0] beaconInterval 1s
attr unit s
par HCCNetwork.host[19].app[0] neighborValidityInterval 4s
attr unit s
scalar HCCNetwork.host[19].app[0] nodeDegree:mean 5.5324675324675
attr recordingmode mean
attr source nodeDegree
attr title "Node Degree, mean"
scalar HCCNetwork.host[19].app[0] clusterRole:timeavg 1.8552632643839
attr recordingmode timeavg
attr source clusterRole
attr title "Cluster Role, timeavg"
par HCCNetwork.host[19].at typename "\"inet.common.MessageDispatcher\""
par HCCNetwork.host[19].at displayStringTextFormat "\"processed %p pk (%l)\""
par HCCNetwork.host[19].at forwardServiceRegistration true
par HCCNetwork.host[19].at forwardProtocolRegistration true
par HCCNetwork.host[19] typename "\"inet.node.inet.AdhocHost\""
par HCCNetwork.host[19] hasStatus false
par HCCNetwork.host[19] osgModel "\"\""
par HCCNetwork.host[19] osgModelColor "\"\""
par HCCNetwork.host[19] canvasImage "\"\""
par HCCNetwork.host[19] canvasImageColor "\"\""
par HCCNetwork.host[19] recordPcap false
par HCCNetwork.host[19] numPcapRecorders 0
par HCCNetwork.host[19] numLoInterfaces 1
par HCCNetwork.host[19] numWlanInterfaces 1
par HCCNetwork.host[19] numEthInterfaces 0
par HCCNetwork.host[19] numPppInterfaces 0
par HCCNetwork.host[19] numTunInterfaces 0
par HCCNetwork.host[19] numVirtInterfaces 0
par HCCNetwork.host[19] fcsMode "\"declared\""
attr enum declared,computed
par HCCNetwork.host[19] hasIpv4 true
par HCCNetwork.host[19] hasIpv6 false
par HCCNetwork.host[19] hasGn false
par HCCNetwork.host[19] forwarding true
par HCCNetwork.host[19] multicastForwarding false
par HCCNetwork.host[19] hasUdp true
par HCCNetwork.host[19] hasTcp true
par HCCNetwork.host[19] hasSctp false
par HCCNetwork.host[19] numApps 1
par HCCNetwork typename "\"simulations.HCCNetwork\""
par HCCNetwork numHosts 20

