version 3
run Scalability_Analysis-0-20251127-23:15:55-3373
attr configname Scalability_Analysis
attr datetime 20251127-23:15:55
attr datetimef 20251127-231555
attr experiment Scalability_Analysis
attr inifile omnetpp.ini
attr iterationvars ""
attr iterationvarsd ""
attr iterationvarsf ""
attr measurement ""
attr network hcc.HCCNetwork
attr processid 3373
attr repetition 0
attr replication #0
attr resultdir results
attr runnumber 0
attr seedset 0
config image-path ../../inet-4.5.4/images
config description "Vary node count (Larger area, default power for 600m)"
config *.numHosts 50
config *.host[*].mobility.typename MassMobility
config *.host[*].mobility.speed 5mps
config *.host[*].mobility.changeInterval 1s
config *.host[*].mobility.constraintAreaMaxX 600m
config *.host[*].mobility.constraintAreaMaxY 600m
config *.host[*].wlan[0].radio.transmitter.power 500mW
config network hcc.HCCNetwork
config sim-time-limit 10s
config **.loglevel detail
config **.result-recording-modes default
config *.configurator.config "xml(\"<config><interface hosts='*' address='10.0.0.x' netmask='255.255.255.0'/><multicast-group hosts='*' address='224.0.0.1'/></config>\")"
config *.host[*].numApps 1
config *.host[*].app[0].typename hcc.HCCApp
config *.host[*].app[0].localPort 5000
config *.host[*].app[0].destPort 5000
config *.host[*].app[0].destAddress "\"255.255.255.255\""
config *.host[*].app[0].beaconInterval 0.5s
config *.host[*].app[0].neighborValidityInterval 1s
config *.numHosts 5
config *.host[*].mobility.typename MassMobility
config *.host[*].mobility.changeInterval 1s
config *.host[*].mobility.speed 2mps
config *.host[*].mobility.constraintAreaMinX 0m
config *.host[*].mobility.constraintAreaMinY 0m
config *.host[*].mobility.constraintAreaMaxX 200m
config *.host[*].mobility.constraintAreaMaxY 200m
config *.host[*].mobility.constraintAreaMinZ 0m
config *.host[*].mobility.constraintAreaMaxZ 0m
config *.host[*].ipv4.routingTable.routingProtocol.typename ""
config *.host[*].wlan[0].typename Ieee80211Interface
config *.host[*].wlan[0].mac.typename Ieee80211Mac
config *.host[*].wlan[0].mac.useAck false
config *.radioMedium.typename Ieee80211ScalarRadioMedium
config *.radioMedium.pathLoss.typename FreeSpacePathLoss
config *.radioMedium.backgroundNoise.power -110dBm
config *.host[*].wlan[0].radio.typename Ieee80211ScalarRadio
config *.host[*].wlan[0].radio.transmitter.power 10mW
config *.host[*].wlan[0].radio.transmitter.bitrate 2Mbps
config *.host[*].wlan[0].radio.receiver.sensitivity -85dBm
config *.host[*].wlan[0].radio.energyConsumer.sleepCurrent 1uA
config *.host[*].wlan[0].radio.energyConsumer.receiveCurrent 20mA
config *.host[*].wlan[0].radio.energyConsumer.transmitCurrent 50mA

par HCCNetwork.configurator typename "\"inet.networklayer.configurator.ipv4.Ipv4NetworkConfigurator\""
par HCCNetwork.configurator minLinkWeight 0.001
par HCCNetwork.configurator configureIsolatedNetworksSeparatly false
par HCCNetwork.configurator config "<config>...</config> at content:1"
par HCCNetwork.configurator assignAddresses true
par HCCNetwork.configurator assignUniqueAddresses true
par HCCNetwork.configurator assignDisjunctSubnetAddresses true
par HCCNetwork.configurator addStaticRoutes true
par HCCNetwork.configurator addDefaultRoutes true
par HCCNetwork.configurator addSubnetRoutes true
par HCCNetwork.configurator addDirectRoutes true
par HCCNetwork.configurator optimizeRoutes true
par HCCNetwork.configurator dumpTopology false
par HCCNetwork.configurator dumpLinks false
par HCCNetwork.configurator dumpAddresses false
par HCCNetwork.configurator dumpRoutes false
par HCCNetwork.configurator dumpConfig "\"\""
par HCCNetwork.radioMedium.propagation typename "\"inet.physicallayer.wireless.common.propagation.ConstantSpeedPropagation\""
par HCCNetwork.radioMedium.propagation propagationSpeed 2.99792e+08mps
attr unit mps
par HCCNetwork.radioMedium.propagation ignoreMovementDuringTransmission true
par HCCNetwork.radioMedium.propagation ignoreMovementDuringPropagation true
par HCCNetwork.radioMedium.propagation ignoreMovementDuringReception true
scalar HCCNetwork.radioMedium.propagation "Arrival computation count" 0
par HCCNetwork.radioMedium.analogModel typename "\"inet.physicallayer.wireless.common.analogmodel.packetlevel.ScalarAnalogModel\""
par HCCNetwork.radioMedium.analogModel ignorePartialInterference false
par HCCNetwork.radioMedium.backgroundNoise typename "\"inet.physicallayer.wireless.common.backgroundnoise.IsotropicScalarBackgroundNoise\""
par HCCNetwork.radioMedium.backgroundNoise power -110dBm
attr unit dBm
par HCCNetwork.radioMedium.backgroundNoise bandwidth "nan Hz"
attr unit Hz
par HCCNetwork.radioMedium.pathLoss typename "\"inet.physicallayer.wireless.common.pathloss.FreeSpacePathLoss\""
par HCCNetwork.radioMedium.pathLoss alpha 2
par HCCNetwork.radioMedium.pathLoss systemLoss 0dB
attr unit dB
par HCCNetwork.radioMedium.mediumLimitCache typename "\"inet.physicallayer.wireless.common.medium.MediumLimitCache\""
par HCCNetwork.radioMedium.mediumLimitCache centerFrequency 2.4e+09Hz
attr unit Hz
par HCCNetwork.radioMedium.mediumLimitCache maxSpeed "nan mps"
attr unit mps
par HCCNetwork.radioMedium.mediumLimitCache maxTransmissionPower "nan W"
attr unit W
par HCCNetwork.radioMedium.mediumLimitCache minInterferencePower -110dBm
attr unit dBm
par HCCNetwork.radioMedium.mediumLimitCache minReceptionPower -85dBm
attr unit dBm
par HCCNetwork.radioMedium.mediumLimitCache maxAntennaGain 0dB
attr unit dB
par HCCNetwork.radioMedium.mediumLimitCache minInterferenceTime 1e-12s
attr unit s
par HCCNetwork.radioMedium.mediumLimitCache maxTransmissionDuration 0.01s
attr unit s
par HCCNetwork.radioMedium.mediumLimitCache maxCommunicationRange "nan m"
attr unit m
par HCCNetwork.radioMedium.mediumLimitCache maxInterferenceRange "nan m"
attr unit m
par HCCNetwork.radioMedium.communicationCache typename "\"inet.physicallayer.wireless.common.communicationcache.VectorCommunicationCache\""
par HCCNetwork.radioMedium typename "\"inet.physicallayer.wireless.ieee80211.packetlevel.Ieee80211ScalarRadioMedium\""
par HCCNetwork.radioMedium physicalEnvironmentModule "\"physicalEnvironment\""
par HCCNetwork.radioMedium signalAnalogRepresentation "\"scalar\""
attr enum unitDisk,scalar,dimensional
par HCCNetwork.radioMedium rangeFilter "\"\""
par HCCNetwork.radioMedium radioModeFilter false
par HCCNetwork.radioMedium listeningFilter false
par HCCNetwork.radioMedium macAddressFilter false
par HCCNetwork.radioMedium recordTransmissionLog false
par HCCNetwork.radioMedium recordReceptionLog false
scalar HCCNetwork.radioMedium "transmission count" 0
scalar HCCNetwork.radioMedium "signal send count" 0
scalar HCCNetwork.radioMedium "reception computation count" 0
scalar HCCNetwork.radioMedium "interference computation count" 100
scalar HCCNetwork.radioMedium "reception decision computation count" 0
scalar HCCNetwork.radioMedium "listening decision computation count" 100
scalar HCCNetwork.radioMedium "reception cache hit" -nan
attr unit %
scalar HCCNetwork.radioMedium "interference cache hit" -nan
attr unit %
scalar HCCNetwork.radioMedium "noise cache hit" -nan
attr unit %
scalar HCCNetwork.radioMedium "snir cache hit" -nan
attr unit %
scalar HCCNetwork.radioMedium "reception decision cache hit" -nan
attr unit %
scalar HCCNetwork.radioMedium "reception result cache hit" -nan
attr unit %
par HCCNetwork.physicalEnvironment typename "\"inet.environment.common.PhysicalEnvironment\""
par HCCNetwork.physicalEnvironment coordinateSystemModule "\"\""
par HCCNetwork.physicalEnvironment temperature 293K
attr unit K
par HCCNetwork.physicalEnvironment spaceMinX "nan m"
attr unit m
par HCCNetwork.physicalEnvironment spaceMinY "nan m"
attr unit m
par HCCNetwork.physicalEnvironment spaceMinZ "nan m"
attr unit m
par HCCNetwork.physicalEnvironment spaceMaxX "nan m"
attr unit m
par HCCNetwork.physicalEnvironment spaceMaxY "nan m"
attr unit m
par HCCNetwork.physicalEnvironment spaceMaxZ "nan m"
attr unit m
par HCCNetwork.physicalEnvironment config "<config/> at content:1"
par HCCNetwork.host[0].radioIn[0].channel typename "\"ned.IdealChannel\""
par HCCNetwork.host[0].mobility typename "\"inet.mobility.single.MassMobility\""
par HCCNetwork.host[0].mobility subjectModule "\"^\""
par HCCNetwork.host[0].mobility coordinateSystemModule "\"\""
par HCCNetwork.host[0].mobility displayStringTextFormat "\"p: %p\\nv: %v\""
attr mutable ""
par HCCNetwork.host[0].mobility updateDisplayString true
par HCCNetwork.host[0].mobility constraintAreaMinX 0m
attr unit m
par HCCNetwork.host[0].mobility constraintAreaMinY 0m
attr unit m
par HCCNetwork.host[0].mobility constraintAreaMinZ 0m
attr unit m
par HCCNetwork.host[0].mobility constraintAreaMaxX 600m
attr unit m
par HCCNetwork.host[0].mobility constraintAreaMaxY 600m
attr unit m
par HCCNetwork.host[0].mobility constraintAreaMaxZ 0m
attr unit m
par HCCNetwork.host[0].mobility updateInterval 0.1s
attr unit s
par HCCNetwork.host[0].mobility faceForward true
par HCCNetwork.host[0].mobility initialX 329.288m
attr unit m
par HCCNetwork.host[0].mobility initialY 355.707m
attr unit m
par HCCNetwork.host[0].mobility initialZ 0m
attr unit m
par HCCNetwork.host[0].mobility initialMovementHeading 303.936deg
attr unit deg
par HCCNetwork.host[0].mobility initialMovementElevation 0deg
attr unit deg
par HCCNetwork.host[0].mobility initFromDisplayString true
par HCCNetwork.host[0].mobility changeInterval 1s
attr unit s
par HCCNetwork.host[0].mobility angleDelta 360deg
attr unit deg
par HCCNetwork.host[0].mobility rotationAxisAngle 0deg
attr unit deg
par HCCNetwork.host[0].mobility speed 5mps
attr mutable ""
attr unit mps
par HCCNetwork.host[0].interfaceTable typename "\"inet.networklayer.common.InterfaceTable\""
par HCCNetwork.host[0].interfaceTable displayAddresses false
par HCCNetwork.host[0].cb typename "\"inet.common.MessageDispatcher\""
par HCCNetwork.host[0].cb displayStringTextFormat "\"processed %p pk (%l)\""
par HCCNetwork.host[0].cb forwardServiceRegistration true
par HCCNetwork.host[0].cb forwardProtocolRegistration true
par HCCNetwork.host[0].bl typename "\"inet.common.MessageDispatcher\""
par HCCNetwork.host[0].bl displayStringTextFormat "\"processed %p pk (%l)\""
par HCCNetwork.host[0].bl forwardServiceRegistration true
par HCCNetwork.host[0].bl forwardProtocolRegistration true
par HCCNetwork.host[0].li typename "\"inet.common.MessageDispatcher\""
par HCCNetwork.host[0].li displayStringTextFormat "\"processed %p pk (%l)\""
par HCCNetwork.host[0].li forwardServiceRegistration true
par HCCNetwork.host[0].li forwardProtocolRegistration true
par HCCNetwork.host[0].lo[0].upperLayerIn.channel typename "\"ned.IdealChannel\""
par HCCNetwork.host[0].lo[0].lo.upperLayerOut.channel typename "\"ned.IdealChannel\""
par HCCNetwork.host[0].lo[0].lo typename "\"inet.linklayer.loopback.Loopback\""
par HCCNetwork.host[0].lo[0].lo interfaceTableModule "\"HCCNetwork.host[0].interfaceTable\""
par HCCNetwork.host[0].lo[0].lo mtu 4470B
attr unit B
scalar HCCNetwork.host[0].lo[0].lo rcvdPkFromHl:count 0
attr interpolationmode none
attr recordingmode count
attr source packetReceivedFromUpper
attr title "packets received from higher layer, count"
scalar HCCNetwork.host[0].lo[0].lo rcvdPkFromHl:sum(packetBytes) 0
attr interpolationmode none
attr recordingmode sum(packetBytes)
attr source packetReceivedFromUpper
attr title "packets received from higher layer, sum(packetBytes)"
scalar HCCNetwork.host[0].lo[0].lo passedUpPk:count 0
attr interpolationmode none
attr recordingmode count
attr source packetSentToUpper
attr title "packets passed to higher layer, count"
scalar HCCNetwork.host[0].lo[0].lo passedUpPk:sum(packetBytes) 0
attr interpolationmode none
attr recordingmode sum(packetBytes)
attr source packetSentToUpper
attr title "packets passed to higher layer, sum(packetBytes)"
par HCCNetwork.host[0].lo[0] typename "\"inet.linklayer.loopback.LoopbackInterface\""
par HCCNetwork.host[0].lo[0] displayStringTextFormat "\"%a (%i)\\n%m\""
par HCCNetwork.host[0].lo[0] recordPcap false
par HCCNetwork.host[0].lo[0] numPcapRecorders 0
par HCCNetwork.host[0].lo[0] interfaceTableModule "\"HCCNetwork.host[0].interfaceTable\""
scalar HCCNetwork.host[0].lo[0] packetDropInterfaceDown:count 0
attr interpolationmode none
attr recordingmode count
attr source packetDropReasonIsInterfaceDown(packetDropped)
attr title "packet drops: interface down, count"
scalar HCCNetwork.host[0].lo[0] packetDropInterfaceDown:sum(packetBytes) 0
attr interpolationmode none
attr recordingmode sum(packetBytes)
attr source packetDropReasonIsInterfaceDown(packetDropped)
attr title "packet drops: interface down, sum(packetBytes)"
scalar HCCNetwork.host[0].lo[0] packetDropNoCarrier:count 0
attr interpolationmode none
attr recordingmode count
attr source packetDropReasonIsNoCarrier(packetDropped)
attr title "packet drops: no carrier, count"
scalar HCCNetwork.host[0].lo[0] packetDropNoCarrier:sum(packetBytes) 0
attr interpolationmode none
attr recordingmode sum(packetBytes)
attr source packetDropReasonIsNoCarrier(packetDropped)
attr title "packet drops: no carrier, sum(packetBytes)"
par HCCNetwork.host[0].wlan[0].radioIn.channel typename "\"ned.IdealChannel\""
par HCCNetwork.host[0].wlan[0].llc.upperLayerOut.channel typename "\"ned.IdealChannel\""
par HCCNetwork.host[0].wlan[0].upperLayerIn.channel typename "\"ned.IdealChannel\""
par HCCNetwork.host[0].wlan[0].mib typename "\"inet.linklayer.ieee80211.mib.Ieee80211Mib\""
par HCCNetwork.host[0].wlan[0].llc typename "\"inet.linklayer.ieee80211.llc.Ieee80211LlcLpd\""
par HCCNetwork.host[0].wlan[0].llc registerProtocol false
par HCCNetwork.host[0].wlan[0].mgmt typename "\"inet.linklayer.ieee80211.mgmt.Ieee80211MgmtAdhoc\""
par HCCNetwork.host[0].wlan[0].mgmt mibModule "\"HCCNetwork.host[0].wlan[0].mib\""
par HCCNetwork.host[0].wlan[0].mgmt macModule "\"HCCNetwork.host[0].wlan[0].mac\""
par HCCNetwork.host[0].wlan[0].mgmt interfaceTableModule "\"HCCNetwork.host[0].interfaceTable\""
par HCCNetwork.host[0].wlan[0].mac.dcf.channelAccess.pendingQueue typename "\"inet.linklayer.ieee80211.mac.queue.PendingQueue\""
par HCCNetwork.host[0].wlan[0].mac.dcf.channelAccess.pendingQueue displayStringTextFormat "\"contains %p pk (%l) pushed %u\\npulled %o removed %r dropped %d\""
par HCCNetwork.host[0].wlan[0].mac.dcf.channelAccess.pendingQueue packetCapacity 100
par HCCNetwork.host[0].wlan[0].mac.dcf.channelAccess.pendingQueue dataCapacity -1b
attr unit b
par HCCNetwork.host[0].wlan[0].mac.dcf.channelAccess.pendingQueue dropperClass "\"inet::queueing::PacketAtCollectionEndDropper\""
par HCCNetwork.host[0].wlan[0].mac.dcf.channelAccess.pendingQueue comparatorClass "\"inet::ieee80211::MgmtOverDataComparator\""
par HCCNetwork.host[0].wlan[0].mac.dcf.channelAccess.pendingQueue bufferModule "\"\""
scalar HCCNetwork.host[0].wlan[0].mac.dcf.channelAccess.pendingQueue queueLength:last 0
attr autoWarmupFilter false
attr interpolationmode sample-hold
attr recordingmode last
attr source "warmup(atomic(constant0(packetPushEnded) + count(packetPushStarted) - count(packetPulled) - count(packetRemoved) - count(packetDropped)))"
attr title "queue length, last"
attr unit pk
scalar HCCNetwork.host[0].wlan[0].mac.dcf.channelAccess.pendingQueue queueLength:max 0
attr autoWarmupFilter false
attr interpolationmode sample-hold
attr recordingmode max
attr source "warmup(atomic(constant0(packetPushEnded) + count(packetPushStarted) - count(packetPulled) - count(packetRemoved) - count(packetDropped)))"
attr title "queue length, max"
attr unit pk
scalar HCCNetwork.host[0].wlan[0].mac.dcf.channelAccess.pendingQueue queueLength:timeavg 0
attr autoWarmupFilter false
attr interpolationmode sample-hold
attr recordingmode timeavg
attr source "warmup(atomic(constant0(packetPushEnded) + count(packetPushStarted) - count(packetPulled) - count(packetRemoved) - count(packetDropped)))"
attr title "queue length, timeavg"
attr unit pk
scalar HCCNetwork.host[0].wlan[0].mac.dcf.channelAccess.pendingQueue queueBitLength:last 0
attr autoWarmupFilter false
attr interpolationmode sample-hold
attr recordingmode last
attr source "warmup(atomic(constant0(packetPushEnded) + sum(packetLength(packetPushStarted)) - sum(packetLength(packetPulled)) - sum(packetLength(packetRemoved)) - sum(packetLength(packetDropped))))"
attr title "queue bit length, last"
attr unit b
scalar HCCNetwork.host[0].wlan[0].mac.dcf.channelAccess.pendingQueue queueBitLength:max 0
attr autoWarmupFilter false
attr interpolationmode sample-hold
attr recordingmode max
attr source "warmup(atomic(constant0(packetPushEnded) + sum(packetLength(packetPushStarted)) - sum(packetLength(packetPulled)) - sum(packetLength(packetRemoved)) - sum(packetLength(packetDropped))))"
attr title "queue bit length, max"
attr unit b
scalar HCCNetwork.host[0].wlan[0].mac.dcf.channelAccess.pendingQueue queueBitLength:timeavg 0
attr autoWarmupFilter false
attr interpolationmode sample-hold
attr recordingmode timeavg
attr source "warmup(atomic(constant0(packetPushEnded) + sum(packetLength(packetPushStarted)) - sum(packetLength(packetPulled)) - sum(packetLength(packetRemoved)) - sum(packetLength(packetDropped))))"
attr title "queue bit length, timeavg"
attr unit b
statistic HCCNetwork.host[0].wlan[0].mac.dcf.channelAccess.pendingQueue queueingTime:histogram
field count 0
field mean -nan
field stddev nan
field min nan
field max nan
field sum 0
field sqrsum 0
attr interpolationmode none
attr recordingmode histogram
attr source queueingTime(packetPulled)
attr title "queueing times"
attr unit s
bin	-inf	0
bin	0	0
bin	1	0
scalar HCCNetwork.host[0].wlan[0].mac.dcf.channelAccess.pendingQueue outgoingPackets:count 0
attr recordingmode count
attr source packetPulled
attr title "outgoing packets, count"
attr unit pk
scalar HCCNetwork.host[0].wlan[0].mac.dcf.channelAccess.pendingQueue outgoingPacketLengths:sum 0
attr interpolationmode none
attr recordingmode sum
attr source packetLength(packetPulled)
attr title "outgoing packet lengths, sum"
attr unit b
statistic HCCNetwork.host[0].wlan[0].mac.dcf.channelAccess.pendingQueue outgoingPacketLengths:histogram
field count 0
field mean -nan
field stddev nan
field min nan
field max nan
field sum 0
field sqrsum 0
attr interpolationmode none
attr recordingmode histogram
attr source packetLength(packetPulled)
attr title "outgoing packet lengths"
attr unit b
bin	-inf	0
bin	0	0
bin	1	0
statistic HCCNetwork.host[0].wlan[0].mac.dcf.channelAccess.pendingQueue flowQueueingTime:histogram
field count 0
field mean -nan
field stddev nan
field min nan
field max nan
field sum 0
field sqrsum 0
attr interpolationmode none
attr recordingmode histogram
attr source queueingTime(demuxFlow(packetPulled))
attr title "flow queueing times"
attr unit s
bin	-inf	0
bin	0	0
bin	1	0
scalar HCCNetwork.host[0].wlan[0].mac.dcf.channelAccess.pendingQueue incomingPackets:count 0
attr recordingmode count
attr source packetPushStarted
attr title "incoming packets, count"
attr unit pk
scalar HCCNetwork.host[0].wlan[0].mac.dcf.channelAccess.pendingQueue incomingPacketLengths:sum 0
attr interpolationmode none
attr recordingmode sum
attr source packetLength(packetPushStarted)
attr title "incoming packet lengths, sum"
attr unit b
statistic HCCNetwork.host[0].wlan[0].mac.dcf.channelAccess.pendingQueue incomingPacketLengths:histogram
field count 0
field mean -nan
field stddev nan
field min nan
field max nan
field sum 0
field sqrsum 0
attr interpolationmode none
attr recordingmode histogram
attr source packetLength(packetPushStarted)
attr title "incoming packet lengths"
attr unit b
bin	-inf	0
bin	0	0
bin	1	0
scalar HCCNetwork.host[0].wlan[0].mac.dcf.channelAccess.pendingQueue droppedPacketsQueueOverflow:count 0
attr interpolationmode none
attr recordingmode count
attr source packetDropReasonIsQueueOverflow(packetDropped)
attr title "dropped packets: queue overflow, count"
attr unit pk
scalar HCCNetwork.host[0].wlan[0].mac.dcf.channelAccess.pendingQueue droppedPacketLengthsQueueOverflow:sum 0
attr interpolationmode none
attr recordingmode sum
attr source packetLength(packetDropReasonIsQueueOverflow(packetDropped))
attr title "dropped packet lengths: queue overflow, sum"
attr unit b
par HCCNetwork.host[0].wlan[0].mac.dcf.channelAccess.inProgressFrames typename "\"inet.linklayer.ieee80211.mac.queue.InProgressFrames\""
par HCCNetwork.host[0].wlan[0].mac.dcf.channelAccess.inProgressFrames pendingQueueModule "\"^.pendingQueue\""
par HCCNetwork.host[0].wlan[0].mac.dcf.channelAccess.inProgressFrames originatorMacDataServiceModule "\"^.^.originatorMacDataService\""
par HCCNetwork.host[0].wlan[0].mac.dcf.channelAccess.inProgressFrames ackHandlerModule "\"^.^.ackHandler\""
statistic HCCNetwork.host[0].wlan[0].mac.dcf.channelAccess.inProgressFrames queueingTime:histogram
field count 0
field mean -nan
field stddev nan
field min nan
field max nan
field sum 0
field sqrsum 0
attr interpolationmode none
attr recordingmode histogram
attr source queueingTime(packetDequeued)
attr title "queueing times"
bin	-inf	0
bin	0	0
bin	1	0
scalar HCCNetwork.host[0].wlan[0].mac.dcf.channelAccess.inProgressFrames queueLength:max 0
attr autoWarmupFilter false
attr interpolationmode sample-hold
attr recordingmode max
attr source "warmup(count(packetEnqueued) - count(packetDequeued))"
attr title "queue length, max"
scalar HCCNetwork.host[0].wlan[0].mac.dcf.channelAccess.inProgressFrames queueLength:timeavg 0
attr autoWarmupFilter false
attr interpolationmode sample-hold
attr recordingmode timeavg
attr source "warmup(count(packetEnqueued) - count(packetDequeued))"
attr title "queue length, timeavg"
par HCCNetwork.host[0].wlan[0].mac.dcf.channelAccess.contention typename "\"inet.linklayer.ieee80211.mac.contention.Contention\""
par HCCNetwork.host[0].wlan[0].mac.dcf.channelAccess.contention initialChannelBusy true
par HCCNetwork.host[0].wlan[0].mac.dcf.channelAccess.contention backoffOptimization true
scalar HCCNetwork.host[0].wlan[0].mac.dcf.channelAccess.contention channelAccessGranted:count 0
attr recordingmode count
attr title "channel access granted, count"
scalar HCCNetwork.host[0].wlan[0].mac.dcf.channelAccess.contention stateChanged:count 2
attr enum IDLE,DEFER,IFS_AND_BACKOFF
attr interpolationmode none
attr recordingmode count
attr title "contention state changed, count"
attr type enum
par HCCNetwork.host[0].wlan[0].mac.dcf.channelAccess typename "\"inet.linklayer.ieee80211.mac.channelaccess.Dcaf\""
par HCCNetwork.host[0].wlan[0].mac.dcf.channelAccess difsn -1
par HCCNetwork.host[0].wlan[0].mac.dcf.channelAccess cwMin -1
par HCCNetwork.host[0].wlan[0].mac.dcf.channelAccess cwMax -1
par HCCNetwork.host[0].wlan[0].mac.dcf.channelAccess rxModule "\"^.^.rx\""
scalar HCCNetwork.host[0].wlan[0].mac.dcf.channelAccess channelOwnershipChanged:count 0
attr interpolationmode sample-hold
attr recordingmode count
attr title "channel ownership, count"
par HCCNetwork.host[0].wlan[0].mac.dcf.originatorMacDataService.fragmentationPolicy typename "\"inet.linklayer.ieee80211.mac.fragmentation.BasicFragmentationPolicy\""
par HCCNetwork.host[0].wlan[0].mac.dcf.originatorMacDataService.fragmentationPolicy fragmentationThreshold 1500B
attr unit B
par HCCNetwork.host[0].wlan[0].mac.dcf.originatorMacDataService typename "\"inet.linklayer.ieee80211.mac.originator.OriginatorMacDataService\""
scalar HCCNetwork.host[0].wlan[0].mac.dcf.originatorMacDataService packetAggregated:count 0
attr recordingmode count
attr title "packets aggregated, count"
scalar HCCNetwork.host[0].wlan[0].mac.dcf.originatorMacDataService packetFragmented:count 0
attr recordingmode count
attr title "packets fragmented, count"
par HCCNetwork.host[0].wlan[0].mac.dcf.recipientMacDataService typename "\"inet.linklayer.ieee80211.mac.recipient.RecipientMacDataService\""
scalar HCCNetwork.host[0].wlan[0].mac.dcf.recipientMacDataService packetDeaggregated:count 0
attr recordingmode count
attr title "packets deaggregated, count"
scalar HCCNetwork.host[0].wlan[0].mac.dcf.recipientMacDataService packetDefragmented:count 0
attr recordingmode count
attr title "packets defragmented, count"
scalar HCCNetwork.host[0].wlan[0].mac.dcf.recipientMacDataService packetDropDuplicateDetected:count 0
attr interpolationmode none
attr recordingmode count
attr source packetDropReasonIsDuplicateDetected(packetDropped)
attr title "packet drops: duplicate detected, count"
scalar HCCNetwork.host[0].wlan[0].mac.dcf.recipientMacDataService packetDropDuplicateDetected:sum(packetBytes) 0
attr interpolationmode none
attr recordingmode sum(packetBytes)
attr source packetDropReasonIsDuplicateDetected(packetDropped)
attr title "packet drops: duplicate detected, sum(packetBytes)"
par HCCNetwork.host[0].wlan[0].mac.dcf.rateSelection typename "\"inet.linklayer.ieee80211.mac.rateselection.RateSelection\""
par HCCNetwork.host[0].wlan[0].mac.dcf.rateSelection rateControlModule "\"^.rateControl\""
par HCCNetwork.host[0].wlan[0].mac.dcf.rateSelection multicastFrameBitrate -1bps
attr unit bps
par HCCNetwork.host[0].wlan[0].mac.dcf.rateSelection responseAckFrameBitrate -1bps
attr unit bps
par HCCNetwork.host[0].wlan[0].mac.dcf.rateSelection responseCtsFrameBitrate -1bps
attr unit bps
par HCCNetwork.host[0].wlan[0].mac.dcf.rateSelection dataFrameBitrate -1bps
attr unit bps
par HCCNetwork.host[0].wlan[0].mac.dcf.rateSelection dataFrameBandwidth "nan Hz"
attr unit Hz
par HCCNetwork.host[0].wlan[0].mac.dcf.rateSelection dataFrameNumSpatialStreams -1
par HCCNetwork.host[0].wlan[0].mac.dcf.rateSelection mgmtFrameBitrate -1bps
attr unit bps
par HCCNetwork.host[0].wlan[0].mac.dcf.rateSelection controlFrameBitrate -1bps
attr unit bps
par HCCNetwork.host[0].wlan[0].mac.dcf.recoveryProcedure typename "\"inet.linklayer.ieee80211.mac.originator.NonQosRecoveryProcedure\""
par HCCNetwork.host[0].wlan[0].mac.dcf.recoveryProcedure cwCalculatorModule "\"^.channelAccess\""
par HCCNetwork.host[0].wlan[0].mac.dcf.recoveryProcedure rtsPolicyModule "\"^.rtsPolicy\""
par HCCNetwork.host[0].wlan[0].mac.dcf.recoveryProcedure shortRetryLimit 7
par HCCNetwork.host[0].wlan[0].mac.dcf.recoveryProcedure longRetryLimit 4
scalar HCCNetwork.host[0].wlan[0].mac.dcf.recoveryProcedure retryLimitReached:count 0
attr recordingmode count
attr title "retry limit reached, count"
par HCCNetwork.host[0].wlan[0].mac.dcf.originatorProtectionMechanism typename "\"inet.linklayer.ieee80211.mac.protectionmechanism.OriginatorProtectionMechanism\""
par HCCNetwork.host[0].wlan[0].mac.dcf.originatorProtectionMechanism rateSelectionModule "\"^.rateSelection\""
par HCCNetwork.host[0].wlan[0].mac.dcf.ackHandler typename "\"inet.linklayer.ieee80211.mac.originator.AckHandler\""
par HCCNetwork.host[0].wlan[0].mac.dcf.originatorAckPolicy typename "\"inet.linklayer.ieee80211.mac.originator.OriginatorAckPolicy\""
par HCCNetwork.host[0].wlan[0].mac.dcf.originatorAckPolicy rateSelectionModule "\"^.rateSelection\""
par HCCNetwork.host[0].wlan[0].mac.dcf.originatorAckPolicy ackTimeout -1s
attr unit s
par HCCNetwork.host[0].wlan[0].mac.dcf.recipientAckPolicy typename "\"inet.linklayer.ieee80211.mac.recipient.RecipientAckPolicy\""
par HCCNetwork.host[0].wlan[0].mac.dcf.recipientAckPolicy rateSelectionModule "\"^.rateSelection\""
par HCCNetwork.host[0].wlan[0].mac.dcf.rtsPolicy typename "\"inet.linklayer.ieee80211.mac.originator.RtsPolicy\""
par HCCNetwork.host[0].wlan[0].mac.dcf.rtsPolicy rateSelectionModule "\"^.rateSelection\""
par HCCNetwork.host[0].wlan[0].mac.dcf.rtsPolicy ctsTimeout -1s
attr unit s
par HCCNetwork.host[0].wlan[0].mac.dcf.rtsPolicy rtsThreshold 2346B
attr unit B
par HCCNetwork.host[0].wlan[0].mac.dcf.ctsPolicy typename "\"inet.linklayer.ieee80211.mac.recipient.CtsPolicy\""
par HCCNetwork.host[0].wlan[0].mac.dcf.ctsPolicy rxModule "\"^.^.rx\""
par HCCNetwork.host[0].wlan[0].mac.dcf.ctsPolicy rateSelectionModule "\"^.rateSelection\""
par HCCNetwork.host[0].wlan[0].mac.dcf typename "\"inet.linklayer.ieee80211.mac.coordinationfunction.Dcf\""
par HCCNetwork.host[0].wlan[0].mac.dcf rxModule "\"^.rx\""
par HCCNetwork.host[0].wlan[0].mac.dcf txModule "\"^.tx\""
scalar HCCNetwork.host[0].wlan[0].mac.dcf frameSequenceFinished:count 0
attr recordingmode count
attr title "finished frame sequences, count"
statistic HCCNetwork.host[0].wlan[0].mac.dcf frameSequenceDuration:histogram
field count 0
field mean -nan
field stddev nan
field min nan
field max nan
field sum 0
field sqrsum 0
attr recordingmode histogram
attr source frameSequenceDuration(frameSequenceFinished)
attr title "frame sequence durations"
bin	-inf	0
bin	0	0
bin	1	0
statistic HCCNetwork.host[0].wlan[0].mac.dcf frameSequenceNumPackets:histogram
field count 0
field mean -nan
field stddev nan
field min nan
field max nan
field sum 0
field sqrsum 0
attr recordingmode histogram
attr source frameSequenceNumPackets(frameSequenceFinished)
attr title "frame sequences: number of packets"
bin	-inf	0
bin	0	0
bin	1	0
scalar HCCNetwork.host[0].wlan[0].mac.dcf packetReceivedFromPeer:count 0
attr interpolationmode none
attr recordingmode count
attr title "packets received, count"
scalar HCCNetwork.host[0].wlan[0].mac.dcf packetReceivedFromPeer:sum(packetBytes) 0
attr interpolationmode none
attr recordingmode sum(packetBytes)
attr title "packets received, sum(packetBytes)"
scalar HCCNetwork.host[0].wlan[0].mac.dcf packetReceivedFromPeerUnicast:count 0
attr interpolationmode none
attr recordingmode count
attr source ieee80211Unicast(packetReceivedFromPeer)
attr title "packets received: unicast, count"
scalar HCCNetwork.host[0].wlan[0].mac.dcf packetReceivedFromPeerUnicast:sum(packetBytes) 0
attr interpolationmode none
attr recordingmode sum(packetBytes)
attr source ieee80211Unicast(packetReceivedFromPeer)
attr title "packets received: unicast, sum(packetBytes)"
scalar HCCNetwork.host[0].wlan[0].mac.dcf packetReceivedFromPeerMulticast:count 0
attr interpolationmode none
attr recordingmode count
attr source ieee80211Multicast(packetReceivedFromPeer)
attr title "packets received: multicast, count"
scalar HCCNetwork.host[0].wlan[0].mac.dcf packetReceivedFromPeerMulticast:sum(packetBytes) 0
attr interpolationmode none
attr recordingmode sum(packetBytes)
attr source ieee80211Multicast(packetReceivedFromPeer)
attr title "packets received: multicast, sum(packetBytes)"
scalar HCCNetwork.host[0].wlan[0].mac.dcf packetReceivedFromPeerBroadcast:count 0
attr interpolationmode none
attr recordingmode count
attr source ieee80211Broadcast(packetReceivedFromPeer)
attr title "packets received: broadcast, count"
scalar HCCNetwork.host[0].wlan[0].mac.dcf packetReceivedFromPeerBroadcast:sum(packetBytes) 0
attr interpolationmode none
attr recordingmode sum(packetBytes)
attr source ieee80211Broadcast(packetReceivedFromPeer)
attr title "packets received: broadcast, sum(packetBytes)"
scalar HCCNetwork.host[0].wlan[0].mac.dcf packetReceivedFromPeerWithRetry:count 0
attr interpolationmode none
attr recordingmode count
attr source ieee80211Retry(packetReceivedFromPeer)
attr title "packets received: with retry, count"
scalar HCCNetwork.host[0].wlan[0].mac.dcf packetReceivedFromPeerWithRetry:sum(packetBytes) 0
attr interpolationmode none
attr recordingmode sum(packetBytes)
attr source ieee80211Retry(packetReceivedFromPeer)
attr title "packets received: with retry, sum(packetBytes)"
scalar HCCNetwork.host[0].wlan[0].mac.dcf packetReceivedFromPeerWithoutRetry:count 0
attr interpolationmode none
attr recordingmode count
attr source ieee80211NotRetry(packetReceivedFromPeer)
attr title "packets received: without retry, count"
scalar HCCNetwork.host[0].wlan[0].mac.dcf packetReceivedFromPeerWithoutRetry:sum(packetBytes) 0
attr interpolationmode none
attr recordingmode sum(packetBytes)
attr source ieee80211NotRetry(packetReceivedFromPeer)
attr title "packets received: without retry, sum(packetBytes)"
scalar HCCNetwork.host[0].wlan[0].mac.dcf packetSentToPeer:count 0
attr interpolationmode none
attr recordingmode count
attr title "packets sent, count"
scalar HCCNetwork.host[0].wlan[0].mac.dcf packetSentToPeer:sum(packetBytes) 0
attr interpolationmode none
attr recordingmode sum(packetBytes)
attr title "packets sent, sum(packetBytes)"
scalar HCCNetwork.host[0].wlan[0].mac.dcf packetSentToPeerUnicast:count 0
attr interpolationmode none
attr recordingmode count
attr source ieee80211Unicast(packetSentToPeer)
attr title "packets sent: unicast, count"
scalar HCCNetwork.host[0].wlan[0].mac.dcf packetSentToPeerUnicast:sum(packetBytes) 0
attr interpolationmode none
attr recordingmode sum(packetBytes)
attr source ieee80211Unicast(packetSentToPeer)
attr title "packets sent: unicast, sum(packetBytes)"
scalar HCCNetwork.host[0].wlan[0].mac.dcf packetSentToPeerMulticast:count 0
attr interpolationmode none
attr recordingmode count
attr source ieee80211Multicast(packetSentToPeer)
attr title "packets sent: multicast, count"
scalar HCCNetwork.host[0].wlan[0].mac.dcf packetSentToPeerMulticast:sum(packetBytes) 0
attr interpolationmode none
attr recordingmode sum(packetBytes)
attr source ieee80211Multicast(packetSentToPeer)
attr title "packets sent: multicast, sum(packetBytes)"
scalar HCCNetwork.host[0].wlan[0].mac.dcf packetSentToPeerBroadcast:count 0
attr interpolationmode none
attr recordingmode count
attr source ieee80211Broadcast(packetSentToPeer)
attr title "packets sent: broadcast , count"
scalar HCCNetwork.host[0].wlan[0].mac.dcf packetSentToPeerBroadcast:sum(packetBytes) 0
attr interpolationmode none
attr recordingmode sum(packetBytes)
attr source ieee80211Broadcast(packetSentToPeer)
attr title "packets sent: broadcast , sum(packetBytes)"
scalar HCCNetwork.host[0].wlan[0].mac.dcf packetSentToPeerWithRetry:count 0
attr interpolationmode none
attr recordingmode count
attr source ieee80211Retry(packetSentToPeer)
attr title "packets sent: with retry, count"
scalar HCCNetwork.host[0].wlan[0].mac.dcf packetSentToPeerWithRetry:sum(packetBytes) 0
attr interpolationmode none
attr recordingmode sum(packetBytes)
attr source ieee80211Retry(packetSentToPeer)
attr title "packets sent: with retry, sum(packetBytes)"
scalar HCCNetwork.host[0].wlan[0].mac.dcf packetSentToPeerWithoutRetry:count 0
attr interpolationmode none
attr recordingmode count
attr source ieee80211NotRetry(packetSentToPeer)
attr title "packets sent: without retry, count"
scalar HCCNetwork.host[0].wlan[0].mac.dcf packetSentToPeerWithoutRetry:sum(packetBytes) 0
attr interpolationmode none
attr recordingmode sum(packetBytes)
attr source ieee80211NotRetry(packetSentToPeer)
attr title "packets sent: without retry, sum(packetBytes)"
scalar HCCNetwork.host[0].wlan[0].mac.dcf packetDrop:count 0
attr interpolationmode none
attr recordingmode count
attr source packetDropped
attr title "packet drops, count"
scalar HCCNetwork.host[0].wlan[0].mac.dcf packetDrop:sum(packetBytes) 0
attr interpolationmode none
attr recordingmode sum(packetBytes)
attr source packetDropped
attr title "packet drops, sum(packetBytes)"
scalar HCCNetwork.host[0].wlan[0].mac.dcf packetDropNotAddressedToUs:count 0
attr interpolationmode none
attr recordingmode count
attr source packetDropReasonIsNotAddressedToUs(packetDropped)
attr title "packet drops: not addressed to us, count"
scalar HCCNetwork.host[0].wlan[0].mac.dcf packetDropNotAddressedToUs:sum(packetBytes) 0
attr interpolationmode none
attr recordingmode sum(packetBytes)
attr source packetDropReasonIsNotAddressedToUs(packetDropped)
attr title "packet drops: not addressed to us, sum(packetBytes)"
scalar HCCNetwork.host[0].wlan[0].mac.dcf packetDropQueueOverflow:count 0
attr interpolationmode none
attr recordingmode count
attr source packetDropReasonIsQueueOverflow(packetDropped)
attr title "packet drops: queue overflow, count"
scalar HCCNetwork.host[0].wlan[0].mac.dcf packetDropQueueOverflow:sum(packetBytes) 0
attr interpolationmode none
attr recordingmode sum(packetBytes)
attr source packetDropReasonIsQueueOverflow(packetDropped)
attr title "packet drops: queue overflow, sum(packetBytes)"
scalar HCCNetwork.host[0].wlan[0].mac.dcf packetDropRetryLimitReached:count 0
attr interpolationmode none
attr recordingmode count
attr source packetDropReasonIsRetryLimitReached(packetDropped)
attr title "packet drops: retry limit reached, count"
scalar HCCNetwork.host[0].wlan[0].mac.dcf packetDropRetryLimitReached:sum(packetBytes) 0
attr interpolationmode none
attr recordingmode sum(packetBytes)
attr source packetDropReasonIsRetryLimitReached(packetDropped)
attr title "packet drops: retry limit reached, sum(packetBytes)"
scalar HCCNetwork.host[0].wlan[0].mac.dcf linkBroken:count 0
attr interpolationmode none
attr recordingmode count
attr title "link breaks, count"
par HCCNetwork.host[0].wlan[0].mac.ds typename "\"inet.linklayer.ieee80211.mac.Ds\""
par HCCNetwork.host[0].wlan[0].mac.ds mibModule "\"HCCNetwork.host[0].wlan[0].mib\""
par HCCNetwork.host[0].wlan[0].mac.rx typename "\"inet.linklayer.ieee80211.mac.Rx\""
par HCCNetwork.host[0].wlan[0].mac.tx typename "\"inet.linklayer.ieee80211.mac.Tx\""
par HCCNetwork.host[0].wlan[0].mac.tx rxModule "\"^.rx\""
par HCCNetwork.host[0].wlan[0].mac typename "\"inet.linklayer.ieee80211.mac.Ieee80211Mac\""
par HCCNetwork.host[0].wlan[0].mac interfaceTableModule "\"HCCNetwork.host[0].interfaceTable\""
par HCCNetwork.host[0].wlan[0].mac mibModule "\"HCCNetwork.host[0].wlan[0].mib\""
par HCCNetwork.host[0].wlan[0].mac modeSet "\"g(mixed)\""
attr enum a,b,g(erp),g(mixed),n(mixed-2.4Ghz),p,ac
par HCCNetwork.host[0].wlan[0].mac fcsMode "\"declared\""
attr enum declared,computed
par HCCNetwork.host[0].wlan[0].mac initialRadioMode "\"receiver\""
attr enum off,sleep,receiver,transmitter,transceiver
par HCCNetwork.host[0].wlan[0].mac mtu 2304B
attr unit B
par HCCNetwork.host[0].wlan[0].mac qosStation false
scalar HCCNetwork.host[0].wlan[0].mac packetReceivedFromLower:count 0
attr interpolationmode none
attr recordingmode count
attr title "packets received from lower layer, count"
scalar HCCNetwork.host[0].wlan[0].mac packetReceivedFromLower:sum(packetBytes) 0
attr interpolationmode none
attr recordingmode sum(packetBytes)
attr title "packets received from lower layer, sum(packetBytes)"
scalar HCCNetwork.host[0].wlan[0].mac packetSentToLower:count 0
attr interpolationmode none
attr recordingmode count
attr title "packets sent to lower layer, count"
scalar HCCNetwork.host[0].wlan[0].mac packetSentToLower:sum(packetBytes) 0
attr interpolationmode none
attr recordingmode sum(packetBytes)
attr title "packets sent to lower layer, sum(packetBytes)"
scalar HCCNetwork.host[0].wlan[0].mac packetReceivedFromUpper:count 0
attr interpolationmode none
attr recordingmode count
attr title "packets received from upper layer, count"
scalar HCCNetwork.host[0].wlan[0].mac packetReceivedFromUpper:sum(packetBytes) 0
attr interpolationmode none
attr recordingmode sum(packetBytes)
attr title "packets received from upper layer, sum(packetBytes)"
scalar HCCNetwork.host[0].wlan[0].mac packetSentToUpper:count 0
attr interpolationmode none
attr recordingmode count
attr title "packets sent to upper layer, count"
scalar HCCNetwork.host[0].wlan[0].mac packetSentToUpper:sum(packetBytes) 0
attr interpolationmode none
attr recordingmode sum(packetBytes)
attr title "packets sent to upper layer, sum(packetBytes)"
scalar HCCNetwork.host[0].wlan[0].mac packetDrop:count 0
attr interpolationmode none
attr recordingmode count
attr source packetDropped
attr title "packet drops, count"
scalar HCCNetwork.host[0].wlan[0].mac packetDrop:sum(packetBytes) 0
attr interpolationmode none
attr recordingmode sum(packetBytes)
attr source packetDropped
attr title "packet drops, sum(packetBytes)"
scalar HCCNetwork.host[0].wlan[0].mac packetDropIncorrectlyReceived:count 0
attr interpolationmode none
attr recordingmode count
attr source packetDropReasonIsIncorrectlyReceived(packetDropped)
attr title "packet drops: incorrectly received, count"
scalar HCCNetwork.host[0].wlan[0].mac packetDropIncorrectlyReceived:sum(packetBytes) 0
attr interpolationmode none
attr recordingmode sum(packetBytes)
attr source packetDropReasonIsIncorrectlyReceived(packetDropped)
attr title "packet drops: incorrectly received, sum(packetBytes)"
scalar HCCNetwork.host[0].wlan[0].mac packetDropNotAddressedToUs:count 0
attr interpolationmode none
attr recordingmode count
attr source packetDropReasonIsNotAddressedToUs(packetDropped)
attr title "packet drops: not addressed to us, count"
scalar HCCNetwork.host[0].wlan[0].mac packetDropNotAddressedToUs:sum(packetBytes) 0
attr interpolationmode none
attr recordingmode sum(packetBytes)
attr source packetDropReasonIsNotAddressedToUs(packetDropped)
attr title "packet drops: not addressed to us, sum(packetBytes)"
scalar HCCNetwork.host[0].wlan[0].mac packetDropQueueOverflow:count 0
attr interpolationmode none
attr recordingmode count
attr source packetDropReasonIsQueueOverflow(packetDropped)
attr title "packet drops: queue overflow, count"
scalar HCCNetwork.host[0].wlan[0].mac packetDropQueueOverflow:sum(packetBytes) 0
attr interpolationmode none
attr recordingmode sum(packetBytes)
attr source packetDropReasonIsQueueOverflow(packetDropped)
attr title "packet drops: queue overflow, sum(packetBytes)"
scalar HCCNetwork.host[0].wlan[0].mac packetDropRetryLimitReached:count 0
attr interpolationmode none
attr recordingmode count
attr source packetDropReasonIsRetryLimitReached(packetDropped)
attr title "packet drops: retry limit reached, count"
scalar HCCNetwork.host[0].wlan[0].mac packetDropRetryLimitReached:sum(packetBytes) 0
attr interpolationmode none
attr recordingmode sum(packetBytes)
attr source packetDropReasonIsRetryLimitReached(packetDropped)
attr title "packet drops: retry limit reached, sum(packetBytes)"
scalar HCCNetwork.host[0].wlan[0].mac packetDropDuplicateDetected:count 0
attr interpolationmode none
attr recordingmode count
attr source packetDropReasonIsDuplicateDetected(packetDropped)
attr title "packet drops: duplicate detected, count"
scalar HCCNetwork.host[0].wlan[0].mac packetDropDuplicateDetected:sum(packetBytes) 0
attr interpolationmode none
attr recordingmode sum(packetBytes)
attr source packetDropReasonIsDuplicateDetected(packetDropped)
attr title "packet drops: duplicate detected, sum(packetBytes)"
scalar HCCNetwork.host[0].wlan[0].mac packetDropOther:count 0
attr interpolationmode none
attr recordingmode count
attr source packetDropReasonIsOther(packetDropped)
attr title "packet drops: other, count"
scalar HCCNetwork.host[0].wlan[0].mac packetDropOther:sum(packetBytes) 0
attr interpolationmode none
attr recordingmode sum(packetBytes)
attr source packetDropReasonIsOther(packetDropped)
attr title "packet drops: other, sum(packetBytes)"
scalar HCCNetwork.host[0].wlan[0].mac linkBroken:count 0
attr interpolationmode none
attr recordingmode count
attr title "link breaks, count"
par HCCNetwork.host[0].wlan[0].radio.antenna typename "\"inet.physicallayer.wireless.common.antenna.IsotropicAntenna\""
par HCCNetwork.host[0].wlan[0].radio.antenna mobilityModule "\"^.^.^.mobility\""
par HCCNetwork.host[0].wlan[0].radio.antenna numAntennas 1
par HCCNetwork.host[0].wlan[0].radio.transmitter typename "\"inet.physicallayer.wireless.ieee80211.packetlevel.Ieee80211ScalarTransmitter\""
par HCCNetwork.host[0].wlan[0].radio.transmitter preambleDuration -1s
attr unit s
par HCCNetwork.host[0].wlan[0].radio.transmitter headerLength 192b
attr unit b
par HCCNetwork.host[0].wlan[0].radio.transmitter bitrate -1bps
attr unit bps
par HCCNetwork.host[0].wlan[0].radio.transmitter power 0.5W
attr unit W
par HCCNetwork.host[0].wlan[0].radio.transmitter centerFrequency 2.412e+09Hz
attr unit Hz
par HCCNetwork.host[0].wlan[0].radio.transmitter bandwidth "nan Hz"
attr unit Hz
par HCCNetwork.host[0].wlan[0].radio.transmitter codeRate 1
par HCCNetwork.host[0].wlan[0].radio.transmitter modulation "\"BPSK\""
par HCCNetwork.host[0].wlan[0].radio.transmitter opMode "\"g(mixed)\""
attr enum a,b,g(erp),g(mixed),n(mixed-2.4Ghz),p,ac
par HCCNetwork.host[0].wlan[0].radio.transmitter bandName "\"2.4 GHz\""
attr enum "2.4 GHz,5 GHz,5 GHz (20 MHz),5 GHz (40 MHz),5 GHz (80 MHz),5 GHz (160 MHz),5.9 GHz"
par HCCNetwork.host[0].wlan[0].radio.transmitter channelNumber 0
par HCCNetwork.host[0].wlan[0].radio.receiver.errorModel typename "\"inet.physicallayer.wireless.ieee80211.packetlevel.errormodel.Ieee80211NistErrorModel\""
par HCCNetwork.host[0].wlan[0].radio.receiver.errorModel corruptionMode "\"packet\""
attr enum packet,chunk,byte,bit
par HCCNetwork.host[0].wlan[0].radio.receiver.errorModel snirMode "\"min\""
attr enum min,mean
par HCCNetwork.host[0].wlan[0].radio.receiver.errorModel snirOffset 0dB
attr unit dB
par HCCNetwork.host[0].wlan[0].radio.receiver typename "\"inet.physicallayer.wireless.ieee80211.packetlevel.Ieee80211ScalarReceiver\""
par HCCNetwork.host[0].wlan[0].radio.receiver snirThreshold 4dB
attr unit dB
par HCCNetwork.host[0].wlan[0].radio.receiver snirThresholdMode "\"min\""
attr enum min,mean
par HCCNetwork.host[0].wlan[0].radio.receiver energyDetection -85dBm
attr unit dBm
par HCCNetwork.host[0].wlan[0].radio.receiver sensitivity -85dBm
attr unit dBm
par HCCNetwork.host[0].wlan[0].radio.receiver centerFrequency 2.412e+09Hz
attr unit Hz
par HCCNetwork.host[0].wlan[0].radio.receiver bandwidth 2.2e+07Hz
attr unit Hz
par HCCNetwork.host[0].wlan[0].radio.receiver modulation "\"BPSK\""
par HCCNetwork.host[0].wlan[0].radio.receiver opMode "\"g(mixed)\""
attr enum a,b,g(erp),g(mixed),n(mixed-2.4Ghz),p,ac
par HCCNetwork.host[0].wlan[0].radio.receiver bandName "\"2.4 GHz\""
attr enum "2.4 GHz,5 GHz,5 GHz (20 MHz),5 GHz (40 MHz),5 GHz (80 MHz),5 GHz (160 MHz),5.9 GHz"
par HCCNetwork.host[0].wlan[0].radio.receiver channelNumber 0
par HCCNetwork.host[0].wlan[0].radio typename "\"inet.physicallayer.wireless.ieee80211.packetlevel.Ieee80211ScalarRadio\""
par HCCNetwork.host[0].wlan[0].radio radioMediumModule "\"radioMedium\""
par HCCNetwork.host[0].wlan[0].radio energySourceModule "\"\""
par HCCNetwork.host[0].wlan[0].radio initialRadioMode "\"off\""
attr enum off,sleep,receiver,transmitter,transceiver
par HCCNetwork.host[0].wlan[0].radio switchingTimes "\"ms 0 0 0 0 0 0 0 0 0 0 0 0 0 0 0 0 0 0 0 0 0 0 0 0 0\""
par HCCNetwork.host[0].wlan[0].radio sendRawBytes false
par HCCNetwork.host[0].wlan[0].radio separateTransmissionParts false
par HCCNetwork.host[0].wlan[0].radio separateReceptionParts false
par HCCNetwork.host[0].wlan[0].radio displayCommunicationRange false
par HCCNetwork.host[0].wlan[0].radio displayInterferenceRange false
par HCCNetwork.host[0].wlan[0].radio centerFrequency 2.412e+09Hz
attr unit Hz
par HCCNetwork.host[0].wlan[0].radio bandwidth "nan Hz"
attr unit Hz
par HCCNetwork.host[0].wlan[0].radio signalAnalogRepresentation "\"scalar\""
attr enum scalar,dimensional
par HCCNetwork.host[0].wlan[0].radio opMode "\"g(mixed)\""
attr enum a,b,g(erp),g(mixed),n(mixed-2.4Ghz),p,ac
par HCCNetwork.host[0].wlan[0].radio bandName "\"2.4 GHz\""
attr enum "2.4 GHz,5 GHz,5 GHz (20 MHz),5 GHz (40 MHz),5 GHz (80 MHz),5 GHz (160 MHz),5.9 GHz"
par HCCNetwork.host[0].wlan[0].radio channelNumber 0
par HCCNetwork.host[0].wlan[0].radio crcMode "\"declared\""
attr enum declared,computed
statistic HCCNetwork.host[0].wlan[0].radio radioChannel:histogram
field count 1
field mean 0
field stddev nan
field min 0
field max 0
field sum 0
field sqrsum 0
attr interpolationmode sample-hold
attr recordingmode histogram
attr source radioChannelChanged
attr title "Radio channel"
bin	-inf	0
bin	-0.5	0
bin	-0.48	0
bin	-0.46	0
bin	-0.44	0
bin	-0.42	0
bin	-0.4	0
bin	-0.38	0
bin	-0.36	0
bin	-0.34	0
bin	-0.32	0
bin	-0.3	0
bin	-0.28	0
bin	-0.26	0
bin	-0.24	0
bin	-0.22	0
bin	-0.2	0
bin	-0.18	0
bin	-0.16	0
bin	-0.14	0
bin	-0.12	0
bin	-0.1	0
bin	-0.08	0
bin	-0.06	0
bin	-0.04	0
bin	-0.02	0
bin	0	1
bin	0.02	0
bin	0.04	0
bin	0.06	0
bin	0.08	0
bin	0.1	0
bin	0.12	0
bin	0.14	0
bin	0.16	0
bin	0.18	0
bin	0.2	0
bin	0.22	0
bin	0.24	0
bin	0.26	0
bin	0.28	0
bin	0.3	0
bin	0.32	0
bin	0.34	0
bin	0.36	0
bin	0.38	0
bin	0.4	0
bin	0.42	0
bin	0.44	0
bin	0.46	0
bin	0.48	0
bin	0.5	0
scalar HCCNetwork.host[0].wlan[0].radio radioMode:count 3
attr interpolationmode sample-hold
attr recordingmode count
attr source radioModeChanged
attr title "Radio mode, count"
scalar HCCNetwork.host[0].wlan[0].radio receptionState:count 1
attr interpolationmode sample-hold
attr recordingmode count
attr source receptionStateChanged
attr title "Radio reception state, count"
scalar HCCNetwork.host[0].wlan[0].radio transmissionState:count 0
attr interpolationmode sample-hold
attr recordingmode count
attr source transmissionStateChanged
attr title "Radio transmission state, count"
statistic HCCNetwork.host[0].wlan[0].radio minSnir:histogram
field count 0
field mean -nan
field stddev nan
field min nan
field max nan
field sum 0
field sqrsum 0
attr recordingmode histogram
attr source minimumSnir(packetSentToUpper)
attr title "Min SNIR"
bin	-inf	0
bin	0	0
bin	1	0
statistic HCCNetwork.host[0].wlan[0].radio packetErrorRate:histogram
field count 0
field mean -nan
field stddev nan
field min nan
field max nan
field sum 0
field sqrsum 0
attr recordingmode histogram
attr source packetErrorRate(packetSentToUpper)
attr title "Packet error rate"
bin	-inf	0
bin	0	0
bin	1	0
statistic HCCNetwork.host[0].wlan[0].radio bitErrorRate:histogram
field count 0
field mean -nan
field stddev nan
field min nan
field max nan
field sum 0
field sqrsum 0
attr recordingmode histogram
attr source bitErrorRate(packetSentToUpper)
attr title "Bit error rate"
bin	-inf	0
bin	0	0
bin	1	0
statistic HCCNetwork.host[0].wlan[0].radio symbolErrorRate:histogram
field count 0
field mean -nan
field stddev nan
field min nan
field max nan
field sum 0
field sqrsum 0
attr recordingmode histogram
attr source symbolErrorRate(packetSentToUpper)
attr title "Symbol error rate"
bin	-inf	0
bin	0	0
bin	1	0
par HCCNetwork.host[0].wlan[0] typename "\"inet.linklayer.ieee80211.Ieee80211Interface\""
par HCCNetwork.host[0].wlan[0] displayStringTextFormat "\"%a (%i)\\n%m\""
par HCCNetwork.host[0].wlan[0] recordPcap false
par HCCNetwork.host[0].wlan[0] numPcapRecorders 0
par HCCNetwork.host[0].wlan[0] interfaceTableModule "\"HCCNetwork.host[0].interfaceTable\""
par HCCNetwork.host[0].wlan[0] energySourceModule "\"\""
par HCCNetwork.host[0].wlan[0] opMode "\"g(mixed)\""
attr enum a,b,g(erp),g(mixed),n(mixed-2.4Ghz),p,ac
par HCCNetwork.host[0].wlan[0] address "\"0A-AA-00-00-00-01\""
attr mutable ""
par HCCNetwork.host[0].wlan[0] protocol "\"\""
par HCCNetwork.host[0].wlan[0] bitrate -1bps
attr unit bps
scalar HCCNetwork.host[0].wlan[0] packetDropInterfaceDown:count 0
attr interpolationmode none
attr recordingmode count
attr source packetDropReasonIsInterfaceDown(packetDropped)
attr title "packet drops: interface down, count"
scalar HCCNetwork.host[0].wlan[0] packetDropInterfaceDown:sum(packetBytes) 0
attr interpolationmode none
attr recordingmode sum(packetBytes)
attr source packetDropReasonIsInterfaceDown(packetDropped)
attr title "packet drops: interface down, sum(packetBytes)"
scalar HCCNetwork.host[0].wlan[0] packetDropNoCarrier:count 0
attr interpolationmode none
attr recordingmode count
attr source packetDropReasonIsNoCarrier(packetDropped)
attr title "packet drops: no carrier, count"
scalar HCCNetwork.host[0].wlan[0] packetDropNoCarrier:sum(packetBytes) 0
attr interpolationmode none
attr recordingmode sum(packetBytes)
attr source packetDropReasonIsNoCarrier(packetDropped)
attr title "packet drops: no carrier, sum(packetBytes)"
par HCCNetwork.host[0].ipv4.transportIn.channel typename "\"ned.IdealChannel\""
par HCCNetwork.host[0].ipv4.up.out[0].channel typename "\"ned.IdealChannel\""
par HCCNetwork.host[0].ipv4.lp.out[2].channel typename "\"ned.IdealChannel\""
par HCCNetwork.host[0].ipv4.ifIn.channel typename "\"ned.IdealChannel\""
par HCCNetwork.host[0].ipv4.configurator typename "\"inet.networklayer.configurator.ipv4.Ipv4NodeConfigurator\""
par HCCNetwork.host[0].ipv4.configurator interfaceTableModule "\"HCCNetwork.host[0].interfaceTable\""
par HCCNetwork.host[0].ipv4.configurator routingTableModule "\"HCCNetwork.host[0].ipv4.routingTable\""
par HCCNetwork.host[0].ipv4.configurator networkConfiguratorModule "\"configurator\""
par HCCNetwork.host[0].ipv4.configurator configureRoutingTable true
par HCCNetwork.host[0].ipv4.routingTable typename "\"inet.networklayer.ipv4.Ipv4RoutingTable\""
par HCCNetwork.host[0].ipv4.routingTable interfaceTableModule "\"HCCNetwork.host[0].interfaceTable\""
par HCCNetwork.host[0].ipv4.routingTable routerId "\"auto\""
par HCCNetwork.host[0].ipv4.routingTable netmaskRoutes "\"*\""
par HCCNetwork.host[0].ipv4.routingTable forwarding true
par HCCNetwork.host[0].ipv4.routingTable multicastForwarding false
par HCCNetwork.host[0].ipv4.routingTable useAdminDist false
par HCCNetwork.host[0].ipv4.routingTable routingFile "\"\""
par HCCNetwork.host[0].ipv4.natTable typename "\"inet.networklayer.ipv4.Ipv4NatTable\""
par HCCNetwork.host[0].ipv4.natTable networkProtocolModule "\"^.ip\""
par HCCNetwork.host[0].ipv4.natTable config "<config/> at content:1"
par HCCNetwork.host[0].ipv4.up typename "\"inet.common.MessageDispatcher\""
par HCCNetwork.host[0].ipv4.up displayStringTextFormat "\"processed %p pk (%l)\""
par HCCNetwork.host[0].ipv4.up forwardServiceRegistration true
par HCCNetwork.host[0].ipv4.up forwardProtocolRegistration true
par HCCNetwork.host[0].ipv4.igmp typename "\"inet.networklayer.ipv4.Igmpv2\""
par HCCNetwork.host[0].ipv4.igmp interfaceTableModule "\"HCCNetwork.host[0].interfaceTable\""
par HCCNetwork.host[0].ipv4.igmp routingTableModule "\"HCCNetwork.host[0].ipv4.routingTable\""
par HCCNetwork.host[0].ipv4.igmp crcMode "\"declared\""
attr enum declared,computed
par HCCNetwork.host[0].ipv4.igmp enabled true
par HCCNetwork.host[0].ipv4.igmp robustnessVariable 2
par HCCNetwork.host[0].ipv4.igmp queryInterval 125s
attr unit s
par HCCNetwork.host[0].ipv4.igmp queryResponseInterval 10s
attr unit s
par HCCNetwork.host[0].ipv4.igmp groupMembershipInterval 260s
attr unit s
par HCCNetwork.host[0].ipv4.igmp otherQuerierPresentInterval 255s
attr unit s
par HCCNetwork.host[0].ipv4.igmp startupQueryInterval 31.25s
attr unit s
par HCCNetwork.host[0].ipv4.igmp startupQueryCount 2
par HCCNetwork.host[0].ipv4.igmp lastMemberQueryInterval 1s
attr unit s
par HCCNetwork.host[0].ipv4.igmp lastMemberQueryCount 2
par HCCNetwork.host[0].ipv4.igmp unsolicitedReportInterval 10s
attr unit s
par HCCNetwork.host[0].ipv4.icmp typename "\"inet.networklayer.ipv4.Icmp\""
par HCCNetwork.host[0].ipv4.icmp interfaceTableModule "\"HCCNetwork.host[0].interfaceTable\""
par HCCNetwork.host[0].ipv4.icmp routingTableModule "\"HCCNetwork.host[0].ipv4.routingTable\""
par HCCNetwork.host[0].ipv4.icmp crcMode "\"declared\""
attr enum declared,computed
attr mutable ""
par HCCNetwork.host[0].ipv4.icmp quoteLength 8B
attr mutable ""
attr unit B
par HCCNetwork.host[0].ipv4.mp typename "\"inet.common.MessageDispatcher\""
par HCCNetwork.host[0].ipv4.mp displayStringTextFormat "\"processed %p pk (%l)\""
par HCCNetwork.host[0].ipv4.mp forwardServiceRegistration true
par HCCNetwork.host[0].ipv4.mp forwardProtocolRegistration true
par HCCNetwork.host[0].ipv4.ip typename "\"inet.networklayer.ipv4.Ipv4\""
par HCCNetwork.host[0].ipv4.ip interfaceTableModule "\"HCCNetwork.host[0].interfaceTable\""
par HCCNetwork.host[0].ipv4.ip routingTableModule "\"HCCNetwork.host[0].ipv4.routingTable\""
par HCCNetwork.host[0].ipv4.ip arpModule "\"HCCNetwork.host[0].ipv4.arp\""
par HCCNetwork.host[0].ipv4.ip icmpModule "\"HCCNetwork.host[0].ipv4.icmp\""
par HCCNetwork.host[0].ipv4.ip crcMode "\"declared\""
attr enum declared,computed
par HCCNetwork.host[0].ipv4.ip timeToLive 32
par HCCNetwork.host[0].ipv4.ip multicastTimeToLive 32
par HCCNetwork.host[0].ipv4.ip fragmentTimeout 60s
attr unit s
par HCCNetwork.host[0].ipv4.ip limitedBroadcast false
par HCCNetwork.host[0].ipv4.ip directBroadcastInterfaces "\"\""
scalar HCCNetwork.host[0].ipv4.ip packetDropAddressResolutionFailed:count 0
attr interpolationmode none
attr recordingmode count
attr source packetDropReasonIsAddressResolutionFailed(packetDropped)
attr title "packet drop: address resolution failed, count"
scalar HCCNetwork.host[0].ipv4.ip packetDropAddressResolutionFailed:sum(packetBytes) 0
attr interpolationmode none
attr recordingmode sum(packetBytes)
attr source packetDropReasonIsAddressResolutionFailed(packetDropped)
attr title "packet drop: address resolution failed, sum(packetBytes)"
scalar HCCNetwork.host[0].ipv4.ip packetDropHopLimitReached:count 0
attr interpolationmode none
attr recordingmode count
attr source packetDropReasonIsHopLimitReached(packetDropped)
attr title "packet drop: hop limit reached, count"
scalar HCCNetwork.host[0].ipv4.ip packetDropHopLimitReached:sum(packetBytes) 0
attr interpolationmode none
attr recordingmode sum(packetBytes)
attr source packetDropReasonIsHopLimitReached(packetDropped)
attr title "packet drop: hop limit reached, sum(packetBytes)"
scalar HCCNetwork.host[0].ipv4.ip packetDropForwardingDisabled:count 0
attr interpolationmode none
attr recordingmode count
attr source packetDropReasonIsForwardingDisabled(packetDropped)
attr title "packet drop: forwarding disabled, count"
scalar HCCNetwork.host[0].ipv4.ip packetDropForwardingDisabled:sum(packetBytes) 0
attr interpolationmode none
attr recordingmode sum(packetBytes)
attr source packetDropReasonIsForwardingDisabled(packetDropped)
attr title "packet drop: forwarding disabled, sum(packetBytes)"
scalar HCCNetwork.host[0].ipv4.ip packetDropNoInterfaceFound:count 10
attr interpolationmode none
attr recordingmode count
attr source packetDropReasonIsNoInterfaceFound(packetDropped)
attr title "packet drop: no interface found, count"
scalar HCCNetwork.host[0].ipv4.ip packetDropNoInterfaceFound:sum(packetBytes) 440
attr interpolationmode none
attr recordingmode sum(packetBytes)
attr source packetDropReasonIsNoInterfaceFound(packetDropped)
attr title "packet drop: no interface found, sum(packetBytes)"
scalar HCCNetwork.host[0].ipv4.ip packetDropNoRouteFound:count 0
attr interpolationmode none
attr recordingmode count
attr source packetDropReasonIsNoRouteFound(packetDropped)
attr title "packet drop: no route found, count"
scalar HCCNetwork.host[0].ipv4.ip packetDropNoRouteFound:sum(packetBytes) 0
attr interpolationmode none
attr recordingmode sum(packetBytes)
attr source packetDropReasonIsNoRouteFound(packetDropped)
attr title "packet drop: no route found, sum(packetBytes)"
scalar HCCNetwork.host[0].ipv4.ip packetDropUndefined:count 0
attr interpolationmode none
attr recordingmode count
attr source packetDropReasonIsUndefined(packetDropped)
attr title "packet drop: undefined, count"
scalar HCCNetwork.host[0].ipv4.ip packetDropUndefined:sum(packetBytes) 0
attr interpolationmode none
attr recordingmode sum(packetBytes)
attr source packetDropReasonIsUndefined(packetDropped)
attr title "packet drop: undefined, sum(packetBytes)"
par HCCNetwork.host[0].ipv4.arp typename "\"inet.networklayer.arp.ipv4.Arp\""
par HCCNetwork.host[0].ipv4.arp interfaceTableModule "\"HCCNetwork.host[0].interfaceTable\""
par HCCNetwork.host[0].ipv4.arp routingTableModule "\"HCCNetwork.host[0].ipv4.routingTable\""
par HCCNetwork.host[0].ipv4.arp retryTimeout 1s
attr unit s
par HCCNetwork.host[0].ipv4.arp retryCount 3
par HCCNetwork.host[0].ipv4.arp cacheTimeout 120s
attr unit s
par HCCNetwork.host[0].ipv4.arp proxyArpInterfaces "\"\""
scalar HCCNetwork.host[0].ipv4.arp arpResolutionFailed:count 0
attr recordingmode count
attr title "ARP failed resolutions, count"
scalar HCCNetwork.host[0].ipv4.arp arpResolutionCompleted:count 0
attr recordingmode count
attr title "ARP completed resolutions, count"
scalar HCCNetwork.host[0].ipv4.arp arpResolutionInitiated:count 0
attr recordingmode count
attr title "ARP initiated resolutions, count"
scalar HCCNetwork.host[0].ipv4.arp arpReplySent:count 0
attr recordingmode count
attr source arpReplySent
attr title "ARP replies sent, count"
scalar HCCNetwork.host[0].ipv4.arp arpReplySent:sum(packetBytes) 0
attr recordingmode sum(packetBytes)
attr source arpReplySent
attr title "ARP replies sent, sum(packetBytes)"
scalar HCCNetwork.host[0].ipv4.arp arpRequestSent:count 0
attr recordingmode count
attr source arpRequestSent
attr title "ARP request sent, count"
scalar HCCNetwork.host[0].ipv4.arp arpRequestSent:sum(packetBytes) 0
attr recordingmode sum(packetBytes)
attr source arpRequestSent
attr title "ARP request sent, sum(packetBytes)"
par HCCNetwork.host[0].ipv4.lp typename "\"inet.common.MessageDispatcher\""
par HCCNetwork.host[0].ipv4.lp displayStringTextFormat "\"processed %p pk (%l)\""
par HCCNetwork.host[0].ipv4.lp forwardServiceRegistration true
par HCCNetwork.host[0].ipv4.lp forwardProtocolRegistration true
par HCCNetwork.host[0].ipv4 typename "\"inet.networklayer.ipv4.Ipv4NetworkLayer\""
par HCCNetwork.host[0].ipv4 forwarding true
par HCCNetwork.host[0].ipv4 multicastForwarding false
par HCCNetwork.host[0].ipv4 interfaceTableModule "\"HCCNetwork.host[0].interfaceTable\""
par HCCNetwork.host[0].ipv4 displayStringTextFormat "\"%i\""
par HCCNetwork.host[0].nl typename "\"inet.common.MessageDispatcher\""
par HCCNetwork.host[0].nl displayStringTextFormat "\"processed %p pk (%l)\""
par HCCNetwork.host[0].nl forwardServiceRegistration true
par HCCNetwork.host[0].nl forwardProtocolRegistration true
par HCCNetwork.host[0].udp typename "\"inet.transportlayer.udp.Udp\""
par HCCNetwork.host[0].udp interfaceTableModule "\"HCCNetwork.host[0].interfaceTable\""
par HCCNetwork.host[0].udp icmpModule "\"^.ipv4.icmp\""
par HCCNetwork.host[0].udp icmpv6Module "\"^.ipv6.icmpv6\""
par HCCNetwork.host[0].udp crcMode "\"declared\""
attr enum disabled,declared,computed
par HCCNetwork.host[0].udp defaultMulticastLoop true
scalar HCCNetwork.host[0].udp packetReceived:count 0
attr interpolationmode none
attr recordingmode count
attr source packetReceived
attr title "packets received, count"
scalar HCCNetwork.host[0].udp packetReceived:sum(packetBytes) 0
attr interpolationmode none
attr recordingmode sum(packetBytes)
attr source packetReceived
attr title "packets received, sum(packetBytes)"
scalar HCCNetwork.host[0].udp packetSent:count 10
attr interpolationmode none
attr recordingmode count
attr source packetSent
attr title "packets sent, count"
scalar HCCNetwork.host[0].udp packetSent:sum(packetBytes) 240
attr interpolationmode none
attr recordingmode sum(packetBytes)
attr source packetSent
attr title "packets sent, sum(packetBytes)"
scalar HCCNetwork.host[0].udp passedUpPk:count 0
attr interpolationmode none
attr recordingmode count
attr source packetSentToUpper
attr title "packets passed up, count"
scalar HCCNetwork.host[0].udp droppedPkWrongPort:count 0
attr interpolationmode none
attr recordingmode count
attr source packetDropReasonIsNoPortFound(packetDropped)
attr title "packets dropped (wrong port), count"
scalar HCCNetwork.host[0].udp droppedPkBadChecksum:count 0
attr interpolationmode none
attr recordingmode count
attr source packetDropReasonIsIncorrectlyReceived(packetDropped)
attr title "packets dropped (checksum error), count"
par HCCNetwork.host[0].tcp typename "\"inet.transportlayer.tcp.Tcp\""
par HCCNetwork.host[0].tcp crcMode "\"declared\""
attr enum declared,computed
par HCCNetwork.host[0].tcp advertisedWindow 7504
par HCCNetwork.host[0].tcp delayedAcksEnabled false
par HCCNetwork.host[0].tcp nagleEnabled true
par HCCNetwork.host[0].tcp limitedTransmitEnabled false
par HCCNetwork.host[0].tcp increasedIWEnabled false
par HCCNetwork.host[0].tcp sackSupport false
par HCCNetwork.host[0].tcp windowScalingSupport false
par HCCNetwork.host[0].tcp windowScalingFactor -1
par HCCNetwork.host[0].tcp timestampSupport false
par HCCNetwork.host[0].tcp mss 536
par HCCNetwork.host[0].tcp msl 120s
attr unit s
par HCCNetwork.host[0].tcp tcpAlgorithmClass "\"TcpReno\""
par HCCNetwork.host[0].tcp useDataNotification false
par HCCNetwork.host[0].tcp dupthresh 3
par HCCNetwork.host[0].tcp initialSsthresh 4294967295
par HCCNetwork.host[0].tcp stopOperationExtraTime 0s
attr unit s
par HCCNetwork.host[0].tcp stopOperationTimeout 2s
attr unit s
par HCCNetwork.host[0].tcp ecnWillingness false
par HCCNetwork.host[0].tcp dctcpGamma 0.0625
par HCCNetwork.host[0].tn typename "\"inet.common.MessageDispatcher\""
par HCCNetwork.host[0].tn displayStringTextFormat "\"processed %p pk (%l)\""
par HCCNetwork.host[0].tn forwardServiceRegistration true
par HCCNetwork.host[0].tn forwardProtocolRegistration true
par HCCNetwork.host[0].app[0] typename "\"hcc.HCCApp\""
par HCCNetwork.host[0].app[0] localPort 5000
par HCCNetwork.host[0].app[0] destPort 5000
par HCCNetwork.host[0].app[0] destAddress "\"255.255.255.255\""
par HCCNetwork.host[0].app[0] beaconInterval 0.5s
attr unit s
par HCCNetwork.host[0].app[0] neighborValidityInterval 1s
attr unit s
scalar HCCNetwork.host[0].app[0] nodeDegree:mean 0
attr recordingmode mean
attr source nodeDegree
attr title "Node Degree, mean"
scalar HCCNetwork.host[0].app[0] clusterRole:timeavg 1
attr recordingmode timeavg
attr source clusterRole
attr title "Cluster Role, timeavg"
par HCCNetwork.host[0].at typename "\"inet.common.MessageDispatcher\""
par HCCNetwork.host[0].at displayStringTextFormat "\"processed %p pk (%l)\""
par HCCNetwork.host[0].at forwardServiceRegistration true
par HCCNetwork.host[0].at forwardProtocolRegistration true
par HCCNetwork.host[0] typename "\"inet.node.inet.AdhocHost\""
par HCCNetwork.host[0] hasStatus false
par HCCNetwork.host[0] osgModel "\"\""
par HCCNetwork.host[0] osgModelColor "\"\""
par HCCNetwork.host[0] canvasImage "\"\""
par HCCNetwork.host[0] canvasImageColor "\"\""
par HCCNetwork.host[0] recordPcap false
par HCCNetwork.host[0] numPcapRecorders 0
par HCCNetwork.host[0] numLoInterfaces 1
par HCCNetwork.host[0] numWlanInterfaces 1
par HCCNetwork.host[0] numEthInterfaces 0
par HCCNetwork.host[0] numPppInterfaces 0
par HCCNetwork.host[0] numTunInterfaces 0
par HCCNetwork.host[0] numVirtInterfaces 0
par HCCNetwork.host[0] fcsMode "\"declared\""
attr enum declared,computed
par HCCNetwork.host[0] hasIpv4 true
par HCCNetwork.host[0] hasIpv6 false
par HCCNetwork.host[0] hasGn false
par HCCNetwork.host[0] forwarding true
par HCCNetwork.host[0] multicastForwarding false
par HCCNetwork.host[0] hasUdp true
par HCCNetwork.host[0] hasTcp true
par HCCNetwork.host[0] hasSctp false
par HCCNetwork.host[0] numApps 1
par HCCNetwork.host[1].radioIn[0].channel typename "\"ned.IdealChannel\""
par HCCNetwork.host[1].mobility typename "\"inet.mobility.single.MassMobility\""
par HCCNetwork.host[1].mobility subjectModule "\"^\""
par HCCNetwork.host[1].mobility coordinateSystemModule "\"\""
par HCCNetwork.host[1].mobility displayStringTextFormat "\"p: %p\\nv: %v\""
attr mutable ""
par HCCNetwork.host[1].mobility updateDisplayString true
par HCCNetwork.host[1].mobility constraintAreaMinX 0m
attr unit m
par HCCNetwork.host[1].mobility constraintAreaMinY 0m
attr unit m
par HCCNetwork.host[1].mobility constraintAreaMinZ 0m
attr unit m
par HCCNetwork.host[1].mobility constraintAreaMaxX 600m
attr unit m
par HCCNetwork.host[1].mobility constraintAreaMaxY 600m
attr unit m
par HCCNetwork.host[1].mobility constraintAreaMaxZ 0m
attr unit m
par HCCNetwork.host[1].mobility updateInterval 0.1s
attr unit s
par HCCNetwork.host[1].mobility faceForward true
par HCCNetwork.host[1].mobility initialX 361.658m
attr unit m
par HCCNetwork.host[1].mobility initialY 514.767m
attr unit m
par HCCNetwork.host[1].mobility initialZ 0m
attr unit m
par HCCNetwork.host[1].mobility initialMovementHeading 305.011deg
attr unit deg
par HCCNetwork.host[1].mobility initialMovementElevation 0deg
attr unit deg
par HCCNetwork.host[1].mobility initFromDisplayString true
par HCCNetwork.host[1].mobility changeInterval 1s
attr unit s
par HCCNetwork.host[1].mobility angleDelta 360deg
attr unit deg
par HCCNetwork.host[1].mobility rotationAxisAngle 0deg
attr unit deg
par HCCNetwork.host[1].mobility speed 5mps
attr mutable ""
attr unit mps
par HCCNetwork.host[1].interfaceTable typename "\"inet.networklayer.common.InterfaceTable\""
par HCCNetwork.host[1].interfaceTable displayAddresses false
par HCCNetwork.host[1].cb typename "\"inet.common.MessageDispatcher\""
par HCCNetwork.host[1].cb displayStringTextFormat "\"processed %p pk (%l)\""
par HCCNetwork.host[1].cb forwardServiceRegistration true
par HCCNetwork.host[1].cb forwardProtocolRegistration true
par HCCNetwork.host[1].bl typename "\"inet.common.MessageDispatcher\""
par HCCNetwork.host[1].bl displayStringTextFormat "\"processed %p pk (%l)\""
par HCCNetwork.host[1].bl forwardServiceRegistration true
par HCCNetwork.host[1].bl forwardProtocolRegistration true
par HCCNetwork.host[1].li typename "\"inet.common.MessageDispatcher\""
par HCCNetwork.host[1].li displayStringTextFormat "\"processed %p pk (%l)\""
par HCCNetwork.host[1].li forwardServiceRegistration true
par HCCNetwork.host[1].li forwardProtocolRegistration true
par HCCNetwork.host[1].lo[0].upperLayerIn.channel typename "\"ned.IdealChannel\""
par HCCNetwork.host[1].lo[0].lo.upperLayerOut.channel typename "\"ned.IdealChannel\""
par HCCNetwork.host[1].lo[0].lo typename "\"inet.linklayer.loopback.Loopback\""
par HCCNetwork.host[1].lo[0].lo interfaceTableModule "\"HCCNetwork.host[1].interfaceTable\""
par HCCNetwork.host[1].lo[0].lo mtu 4470B
attr unit B
scalar HCCNetwork.host[1].lo[0].lo rcvdPkFromHl:count 0
attr interpolationmode none
attr recordingmode count
attr source packetReceivedFromUpper
attr title "packets received from higher layer, count"
scalar HCCNetwork.host[1].lo[0].lo rcvdPkFromHl:sum(packetBytes) 0
attr interpolationmode none
attr recordingmode sum(packetBytes)
attr source packetReceivedFromUpper
attr title "packets received from higher layer, sum(packetBytes)"
scalar HCCNetwork.host[1].lo[0].lo passedUpPk:count 0
attr interpolationmode none
attr recordingmode count
attr source packetSentToUpper
attr title "packets passed to higher layer, count"
scalar HCCNetwork.host[1].lo[0].lo passedUpPk:sum(packetBytes) 0
attr interpolationmode none
attr recordingmode sum(packetBytes)
attr source packetSentToUpper
attr title "packets passed to higher layer, sum(packetBytes)"
par HCCNetwork.host[1].lo[0] typename "\"inet.linklayer.loopback.LoopbackInterface\""
par HCCNetwork.host[1].lo[0] displayStringTextFormat "\"%a (%i)\\n%m\""
par HCCNetwork.host[1].lo[0] recordPcap false
par HCCNetwork.host[1].lo[0] numPcapRecorders 0
par HCCNetwork.host[1].lo[0] interfaceTableModule "\"HCCNetwork.host[1].interfaceTable\""
scalar HCCNetwork.host[1].lo[0] packetDropInterfaceDown:count 0
attr interpolationmode none
attr recordingmode count
attr source packetDropReasonIsInterfaceDown(packetDropped)
attr title "packet drops: interface down, count"
scalar HCCNetwork.host[1].lo[0] packetDropInterfaceDown:sum(packetBytes) 0
attr interpolationmode none
attr recordingmode sum(packetBytes)
attr source packetDropReasonIsInterfaceDown(packetDropped)
attr title "packet drops: interface down, sum(packetBytes)"
scalar HCCNetwork.host[1].lo[0] packetDropNoCarrier:count 0
attr interpolationmode none
attr recordingmode count
attr source packetDropReasonIsNoCarrier(packetDropped)
attr title "packet drops: no carrier, count"
scalar HCCNetwork.host[1].lo[0] packetDropNoCarrier:sum(packetBytes) 0
attr interpolationmode none
attr recordingmode sum(packetBytes)
attr source packetDropReasonIsNoCarrier(packetDropped)
attr title "packet drops: no carrier, sum(packetBytes)"
par HCCNetwork.host[1].wlan[0].radioIn.channel typename "\"ned.IdealChannel\""
par HCCNetwork.host[1].wlan[0].llc.upperLayerOut.channel typename "\"ned.IdealChannel\""
par HCCNetwork.host[1].wlan[0].upperLayerIn.channel typename "\"ned.IdealChannel\""
par HCCNetwork.host[1].wlan[0].mib typename "\"inet.linklayer.ieee80211.mib.Ieee80211Mib\""
par HCCNetwork.host[1].wlan[0].llc typename "\"inet.linklayer.ieee80211.llc.Ieee80211LlcLpd\""
par HCCNetwork.host[1].wlan[0].llc registerProtocol false
par HCCNetwork.host[1].wlan[0].mgmt typename "\"inet.linklayer.ieee80211.mgmt.Ieee80211MgmtAdhoc\""
par HCCNetwork.host[1].wlan[0].mgmt mibModule "\"HCCNetwork.host[1].wlan[0].mib\""
par HCCNetwork.host[1].wlan[0].mgmt macModule "\"HCCNetwork.host[1].wlan[0].mac\""
par HCCNetwork.host[1].wlan[0].mgmt interfaceTableModule "\"HCCNetwork.host[1].interfaceTable\""
par HCCNetwork.host[1].wlan[0].mac.dcf.channelAccess.pendingQueue typename "\"inet.linklayer.ieee80211.mac.queue.PendingQueue\""
par HCCNetwork.host[1].wlan[0].mac.dcf.channelAccess.pendingQueue displayStringTextFormat "\"contains %p pk (%l) pushed %u\\npulled %o removed %r dropped %d\""
par HCCNetwork.host[1].wlan[0].mac.dcf.channelAccess.pendingQueue packetCapacity 100
par HCCNetwork.host[1].wlan[0].mac.dcf.channelAccess.pendingQueue dataCapacity -1b
attr unit b
par HCCNetwork.host[1].wlan[0].mac.dcf.channelAccess.pendingQueue dropperClass "\"inet::queueing::PacketAtCollectionEndDropper\""
par HCCNetwork.host[1].wlan[0].mac.dcf.channelAccess.pendingQueue comparatorClass "\"inet::ieee80211::MgmtOverDataComparator\""
par HCCNetwork.host[1].wlan[0].mac.dcf.channelAccess.pendingQueue bufferModule "\"\""
scalar HCCNetwork.host[1].wlan[0].mac.dcf.channelAccess.pendingQueue queueLength:last 0
attr autoWarmupFilter false
attr interpolationmode sample-hold
attr recordingmode last
attr source "warmup(atomic(constant0(packetPushEnded) + count(packetPushStarted) - count(packetPulled) - count(packetRemoved) - count(packetDropped)))"
attr title "queue length, last"
attr unit pk
scalar HCCNetwork.host[1].wlan[0].mac.dcf.channelAccess.pendingQueue queueLength:max 0
attr autoWarmupFilter false
attr interpolationmode sample-hold
attr recordingmode max
attr source "warmup(atomic(constant0(packetPushEnded) + count(packetPushStarted) - count(packetPulled) - count(packetRemoved) - count(packetDropped)))"
attr title "queue length, max"
attr unit pk
scalar HCCNetwork.host[1].wlan[0].mac.dcf.channelAccess.pendingQueue queueLength:timeavg 0
attr autoWarmupFilter false
attr interpolationmode sample-hold
attr recordingmode timeavg
attr source "warmup(atomic(constant0(packetPushEnded) + count(packetPushStarted) - count(packetPulled) - count(packetRemoved) - count(packetDropped)))"
attr title "queue length, timeavg"
attr unit pk
scalar HCCNetwork.host[1].wlan[0].mac.dcf.channelAccess.pendingQueue queueBitLength:last 0
attr autoWarmupFilter false
attr interpolationmode sample-hold
attr recordingmode last
attr source "warmup(atomic(constant0(packetPushEnded) + sum(packetLength(packetPushStarted)) - sum(packetLength(packetPulled)) - sum(packetLength(packetRemoved)) - sum(packetLength(packetDropped))))"
attr title "queue bit length, last"
attr unit b
scalar HCCNetwork.host[1].wlan[0].mac.dcf.channelAccess.pendingQueue queueBitLength:max 0
attr autoWarmupFilter false
attr interpolationmode sample-hold
attr recordingmode max
attr source "warmup(atomic(constant0(packetPushEnded) + sum(packetLength(packetPushStarted)) - sum(packetLength(packetPulled)) - sum(packetLength(packetRemoved)) - sum(packetLength(packetDropped))))"
attr title "queue bit length, max"
attr unit b
scalar HCCNetwork.host[1].wlan[0].mac.dcf.channelAccess.pendingQueue queueBitLength:timeavg 0
attr autoWarmupFilter false
attr interpolationmode sample-hold
attr recordingmode timeavg
attr source "warmup(atomic(constant0(packetPushEnded) + sum(packetLength(packetPushStarted)) - sum(packetLength(packetPulled)) - sum(packetLength(packetRemoved)) - sum(packetLength(packetDropped))))"
attr title "queue bit length, timeavg"
attr unit b
statistic HCCNetwork.host[1].wlan[0].mac.dcf.channelAccess.pendingQueue queueingTime:histogram
field count 0
field mean -nan
field stddev nan
field min nan
field max nan
field sum 0
field sqrsum 0
attr interpolationmode none
attr recordingmode histogram
attr source queueingTime(packetPulled)
attr title "queueing times"
attr unit s
bin	-inf	0
bin	0	0
bin	1	0
scalar HCCNetwork.host[1].wlan[0].mac.dcf.channelAccess.pendingQueue outgoingPackets:count 0
attr recordingmode count
attr source packetPulled
attr title "outgoing packets, count"
attr unit pk
scalar HCCNetwork.host[1].wlan[0].mac.dcf.channelAccess.pendingQueue outgoingPacketLengths:sum 0
attr interpolationmode none
attr recordingmode sum
attr source packetLength(packetPulled)
attr title "outgoing packet lengths, sum"
attr unit b
statistic HCCNetwork.host[1].wlan[0].mac.dcf.channelAccess.pendingQueue outgoingPacketLengths:histogram
field count 0
field mean -nan
field stddev nan
field min nan
field max nan
field sum 0
field sqrsum 0
attr interpolationmode none
attr recordingmode histogram
attr source packetLength(packetPulled)
attr title "outgoing packet lengths"
attr unit b
bin	-inf	0
bin	0	0
bin	1	0
statistic HCCNetwork.host[1].wlan[0].mac.dcf.channelAccess.pendingQueue flowQueueingTime:histogram
field count 0
field mean -nan
field stddev nan
field min nan
field max nan
field sum 0
field sqrsum 0
attr interpolationmode none
attr recordingmode histogram
attr source queueingTime(demuxFlow(packetPulled))
attr title "flow queueing times"
attr unit s
bin	-inf	0
bin	0	0
bin	1	0
scalar HCCNetwork.host[1].wlan[0].mac.dcf.channelAccess.pendingQueue incomingPackets:count 0
attr recordingmode count
attr source packetPushStarted
attr title "incoming packets, count"
attr unit pk
scalar HCCNetwork.host[1].wlan[0].mac.dcf.channelAccess.pendingQueue incomingPacketLengths:sum 0
attr interpolationmode none
attr recordingmode sum
attr source packetLength(packetPushStarted)
attr title "incoming packet lengths, sum"
attr unit b
statistic HCCNetwork.host[1].wlan[0].mac.dcf.channelAccess.pendingQueue incomingPacketLengths:histogram
field count 0
field mean -nan
field stddev nan
field min nan
field max nan
field sum 0
field sqrsum 0
attr interpolationmode none
attr recordingmode histogram
attr source packetLength(packetPushStarted)
attr title "incoming packet lengths"
attr unit b
bin	-inf	0
bin	0	0
bin	1	0
scalar HCCNetwork.host[1].wlan[0].mac.dcf.channelAccess.pendingQueue droppedPacketsQueueOverflow:count 0
attr interpolationmode none
attr recordingmode count
attr source packetDropReasonIsQueueOverflow(packetDropped)
attr title "dropped packets: queue overflow, count"
attr unit pk
scalar HCCNetwork.host[1].wlan[0].mac.dcf.channelAccess.pendingQueue droppedPacketLengthsQueueOverflow:sum 0
attr interpolationmode none
attr recordingmode sum
attr source packetLength(packetDropReasonIsQueueOverflow(packetDropped))
attr title "dropped packet lengths: queue overflow, sum"
attr unit b
par HCCNetwork.host[1].wlan[0].mac.dcf.channelAccess.inProgressFrames typename "\"inet.linklayer.ieee80211.mac.queue.InProgressFrames\""
par HCCNetwork.host[1].wlan[0].mac.dcf.channelAccess.inProgressFrames pendingQueueModule "\"^.pendingQueue\""
par HCCNetwork.host[1].wlan[0].mac.dcf.channelAccess.inProgressFrames originatorMacDataServiceModule "\"^.^.originatorMacDataService\""
par HCCNetwork.host[1].wlan[0].mac.dcf.channelAccess.inProgressFrames ackHandlerModule "\"^.^.ackHandler\""
statistic HCCNetwork.host[1].wlan[0].mac.dcf.channelAccess.inProgressFrames queueingTime:histogram
field count 0
field mean -nan
field stddev nan
field min nan
field max nan
field sum 0
field sqrsum 0
attr interpolationmode none
attr recordingmode histogram
attr source queueingTime(packetDequeued)
attr title "queueing times"
bin	-inf	0
bin	0	0
bin	1	0
scalar HCCNetwork.host[1].wlan[0].mac.dcf.channelAccess.inProgressFrames queueLength:max 0
attr autoWarmupFilter false
attr interpolationmode sample-hold
attr recordingmode max
attr source "warmup(count(packetEnqueued) - count(packetDequeued))"
attr title "queue length, max"
scalar HCCNetwork.host[1].wlan[0].mac.dcf.channelAccess.inProgressFrames queueLength:timeavg 0
attr autoWarmupFilter false
attr interpolationmode sample-hold
attr recordingmode timeavg
attr source "warmup(count(packetEnqueued) - count(packetDequeued))"
attr title "queue length, timeavg"
par HCCNetwork.host[1].wlan[0].mac.dcf.channelAccess.contention typename "\"inet.linklayer.ieee80211.mac.contention.Contention\""
par HCCNetwork.host[1].wlan[0].mac.dcf.channelAccess.contention initialChannelBusy true
par HCCNetwork.host[1].wlan[0].mac.dcf.channelAccess.contention backoffOptimization true
[...]
attr unit Hz
par HCCNetwork.host[49].wlan[0].radio signalAnalogRepresentation "\"scalar\""
attr enum scalar,dimensional
par HCCNetwork.host[49].wlan[0].radio opMode "\"g(mixed)\""
attr enum a,b,g(erp),g(mixed),n(mixed-2.4Ghz),p,ac
par HCCNetwork.host[49].wlan[0].radio bandName "\"2.4 GHz\""
attr enum "2.4 GHz,5 GHz,5 GHz (20 MHz),5 GHz (40 MHz),5 GHz (80 MHz),5 GHz (160 MHz),5.9 GHz"
par HCCNetwork.host[49].wlan[0].radio channelNumber 0
par HCCNetwork.host[49].wlan[0].radio crcMode "\"declared\""
attr enum declared,computed
statistic HCCNetwork.host[49].wlan[0].radio radioChannel:histogram
field count 1
field mean 0
field stddev nan
field min 0
field max 0
field sum 0
field sqrsum 0
attr interpolationmode sample-hold
attr recordingmode histogram
attr source radioChannelChanged
attr title "Radio channel"
bin	-inf	0
bin	-0.5	0
bin	-0.48	0
bin	-0.46	0
bin	-0.44	0
bin	-0.42	0
bin	-0.4	0
bin	-0.38	0
bin	-0.36	0
bin	-0.34	0
bin	-0.32	0
bin	-0.3	0
bin	-0.28	0
bin	-0.26	0
bin	-0.24	0
bin	-0.22	0
bin	-0.2	0
bin	-0.18	0
bin	-0.16	0
bin	-0.14	0
bin	-0.12	0
bin	-0.1	0
bin	-0.08	0
bin	-0.06	0
bin	-0.04	0
bin	-0.02	0
bin	0	1
bin	0.02	0
bin	0.04	0
bin	0.06	0
bin	0.08	0
bin	0.1	0
bin	0.12	0
bin	0.14	0
bin	0.16	0
bin	0.18	0
bin	0.2	0
bin	0.22	0
bin	0.24	0
bin	0.26	0
bin	0.28	0
bin	0.3	0
bin	0.32	0
bin	0.34	0
bin	0.36	0
bin	0.38	0
bin	0.4	0
bin	0.42	0
bin	0.44	0
bin	0.46	0
bin	0.48	0
bin	0.5	0
scalar HCCNetwork.host[49].wlan[0].radio radioMode:count 3
attr interpolationmode sample-hold
attr recordingmode count
attr source radioModeChanged
attr title "Radio mode, count"
scalar HCCNetwork.host[49].wlan[0].radio receptionState:count 1
attr interpolationmode sample-hold
attr recordingmode count
attr source receptionStateChanged
attr title "Radio reception state, count"
scalar HCCNetwork.host[49].wlan[0].radio transmissionState:count 0
attr interpolationmode sample-hold
attr recordingmode count
attr source transmissionStateChanged
attr title "Radio transmission state, count"
statistic HCCNetwork.host[49].wlan[0].radio minSnir:histogram
field count 0
field mean -nan
field stddev nan
field min nan
field max nan
field sum 0
field sqrsum 0
attr recordingmode histogram
attr source minimumSnir(packetSentToUpper)
attr title "Min SNIR"
bin	-inf	0
bin	0	0
bin	1	0
statistic HCCNetwork.host[49].wlan[0].radio packetErrorRate:histogram
field count 0
field mean -nan
field stddev nan
field min nan
field max nan
field sum 0
field sqrsum 0
attr recordingmode histogram
attr source packetErrorRate(packetSentToUpper)
attr title "Packet error rate"
bin	-inf	0
bin	0	0
bin	1	0
statistic HCCNetwork.host[49].wlan[0].radio bitErrorRate:histogram
field count 0
field mean -nan
field stddev nan
field min nan
field max nan
field sum 0
field sqrsum 0
attr recordingmode histogram
attr source bitErrorRate(packetSentToUpper)
attr title "Bit error rate"
bin	-inf	0
bin	0	0
bin	1	0
statistic HCCNetwork.host[49].wlan[0].radio symbolErrorRate:histogram
field count 0
field mean -nan
field stddev nan
field min nan
field max nan
field sum 0
field sqrsum 0
attr recordingmode histogram
attr source symbolErrorRate(packetSentToUpper)
attr title "Symbol error rate"
bin	-inf	0
bin	0	0
bin	1	0
par HCCNetwork.host[49].wlan[0] typename "\"inet.linklayer.ieee80211.Ieee80211Interface\""
par HCCNetwork.host[49].wlan[0] displayStringTextFormat "\"%a (%i)\\n%m\""
par HCCNetwork.host[49].wlan[0] recordPcap false
par HCCNetwork.host[49].wlan[0] numPcapRecorders 0
par HCCNetwork.host[49].wlan[0] interfaceTableModule "\"HCCNetwork.host[49].interfaceTable\""
par HCCNetwork.host[49].wlan[0] energySourceModule "\"\""
par HCCNetwork.host[49].wlan[0] opMode "\"g(mixed)\""
attr enum a,b,g(erp),g(mixed),n(mixed-2.4Ghz),p,ac
par HCCNetwork.host[49].wlan[0] address "\"0A-AA-00-00-00-32\""
attr mutable ""
par HCCNetwork.host[49].wlan[0] protocol "\"\""
par HCCNetwork.host[49].wlan[0] bitrate -1bps
attr unit bps
scalar HCCNetwork.host[49].wlan[0] packetDropInterfaceDown:count 0
attr interpolationmode none
attr recordingmode count
attr source packetDropReasonIsInterfaceDown(packetDropped)
attr title "packet drops: interface down, count"
scalar HCCNetwork.host[49].wlan[0] packetDropInterfaceDown:sum(packetBytes) 0
attr interpolationmode none
attr recordingmode sum(packetBytes)
attr source packetDropReasonIsInterfaceDown(packetDropped)
attr title "packet drops: interface down, sum(packetBytes)"
scalar HCCNetwork.host[49].wlan[0] packetDropNoCarrier:count 0
attr interpolationmode none
attr recordingmode count
attr source packetDropReasonIsNoCarrier(packetDropped)
attr title "packet drops: no carrier, count"
scalar HCCNetwork.host[49].wlan[0] packetDropNoCarrier:sum(packetBytes) 0
attr interpolationmode none
attr recordingmode sum(packetBytes)
attr source packetDropReasonIsNoCarrier(packetDropped)
attr title "packet drops: no carrier, sum(packetBytes)"
par HCCNetwork.host[49].ipv4.transportIn.channel typename "\"ned.IdealChannel\""
par HCCNetwork.host[49].ipv4.up.out[0].channel typename "\"ned.IdealChannel\""
par HCCNetwork.host[49].ipv4.lp.out[2].channel typename "\"ned.IdealChannel\""
par HCCNetwork.host[49].ipv4.ifIn.channel typename "\"ned.IdealChannel\""
par HCCNetwork.host[49].ipv4.configurator typename "\"inet.networklayer.configurator.ipv4.Ipv4NodeConfigurator\""
par HCCNetwork.host[49].ipv4.configurator interfaceTableModule "\"HCCNetwork.host[49].interfaceTable\""
par HCCNetwork.host[49].ipv4.configurator routingTableModule "\"HCCNetwork.host[49].ipv4.routingTable\""
par HCCNetwork.host[49].ipv4.configurator networkConfiguratorModule "\"configurator\""
par HCCNetwork.host[49].ipv4.configurator configureRoutingTable true
par HCCNetwork.host[49].ipv4.routingTable typename "\"inet.networklayer.ipv4.Ipv4RoutingTable\""
par HCCNetwork.host[49].ipv4.routingTable interfaceTableModule "\"HCCNetwork.host[49].interfaceTable\""
par HCCNetwork.host[49].ipv4.routingTable routerId "\"auto\""
par HCCNetwork.host[49].ipv4.routingTable netmaskRoutes "\"*\""
par HCCNetwork.host[49].ipv4.routingTable forwarding true
par HCCNetwork.host[49].ipv4.routingTable multicastForwarding false
par HCCNetwork.host[49].ipv4.routingTable useAdminDist false
par HCCNetwork.host[49].ipv4.routingTable routingFile "\"\""
par HCCNetwork.host[49].ipv4.natTable typename "\"inet.networklayer.ipv4.Ipv4NatTable\""
par HCCNetwork.host[49].ipv4.natTable networkProtocolModule "\"^.ip\""
par HCCNetwork.host[49].ipv4.natTable config "<config/> at content:1"
par HCCNetwork.host[49].ipv4.up typename "\"inet.common.MessageDispatcher\""
par HCCNetwork.host[49].ipv4.up displayStringTextFormat "\"processed %p pk (%l)\""
par HCCNetwork.host[49].ipv4.up forwardServiceRegistration true
par HCCNetwork.host[49].ipv4.up forwardProtocolRegistration true
par HCCNetwork.host[49].ipv4.igmp typename "\"inet.networklayer.ipv4.Igmpv2\""
par HCCNetwork.host[49].ipv4.igmp interfaceTableModule "\"HCCNetwork.host[49].interfaceTable\""
par HCCNetwork.host[49].ipv4.igmp routingTableModule "\"HCCNetwork.host[49].ipv4.routingTable\""
par HCCNetwork.host[49].ipv4.igmp crcMode "\"declared\""
attr enum declared,computed
par HCCNetwork.host[49].ipv4.igmp enabled true
par HCCNetwork.host[49].ipv4.igmp robustnessVariable 2
par HCCNetwork.host[49].ipv4.igmp queryInterval 125s
attr unit s
par HCCNetwork.host[49].ipv4.igmp queryResponseInterval 10s
attr unit s
par HCCNetwork.host[49].ipv4.igmp groupMembershipInterval 260s
attr unit s
par HCCNetwork.host[49].ipv4.igmp otherQuerierPresentInterval 255s
attr unit s
par HCCNetwork.host[49].ipv4.igmp startupQueryInterval 31.25s
attr unit s
par HCCNetwork.host[49].ipv4.igmp startupQueryCount 2
par HCCNetwork.host[49].ipv4.igmp lastMemberQueryInterval 1s
attr unit s
par HCCNetwork.host[49].ipv4.igmp lastMemberQueryCount 2
par HCCNetwork.host[49].ipv4.igmp unsolicitedReportInterval 10s
attr unit s
par HCCNetwork.host[49].ipv4.icmp typename "\"inet.networklayer.ipv4.Icmp\""
par HCCNetwork.host[49].ipv4.icmp interfaceTableModule "\"HCCNetwork.host[49].interfaceTable\""
par HCCNetwork.host[49].ipv4.icmp routingTableModule "\"HCCNetwork.host[49].ipv4.routingTable\""
par HCCNetwork.host[49].ipv4.icmp crcMode "\"declared\""
attr enum declared,computed
attr mutable ""
par HCCNetwork.host[49].ipv4.icmp quoteLength 8B
attr mutable ""
attr unit B
par HCCNetwork.host[49].ipv4.mp typename "\"inet.common.MessageDispatcher\""
par HCCNetwork.host[49].ipv4.mp displayStringTextFormat "\"processed %p pk (%l)\""
par HCCNetwork.host[49].ipv4.mp forwardServiceRegistration true
par HCCNetwork.host[49].ipv4.mp forwardProtocolRegistration true
par HCCNetwork.host[49].ipv4.ip typename "\"inet.networklayer.ipv4.Ipv4\""
par HCCNetwork.host[49].ipv4.ip interfaceTableModule "\"HCCNetwork.host[49].interfaceTable\""
par HCCNetwork.host[49].ipv4.ip routingTableModule "\"HCCNetwork.host[49].ipv4.routingTable\""
par HCCNetwork.host[49].ipv4.ip arpModule "\"HCCNetwork.host[49].ipv4.arp\""
par HCCNetwork.host[49].ipv4.ip icmpModule "\"HCCNetwork.host[49].ipv4.icmp\""
par HCCNetwork.host[49].ipv4.ip crcMode "\"declared\""
attr enum declared,computed
par HCCNetwork.host[49].ipv4.ip timeToLive 32
par HCCNetwork.host[49].ipv4.ip multicastTimeToLive 32
par HCCNetwork.host[49].ipv4.ip fragmentTimeout 60s
attr unit s
par HCCNetwork.host[49].ipv4.ip limitedBroadcast false
par HCCNetwork.host[49].ipv4.ip directBroadcastInterfaces "\"\""
scalar HCCNetwork.host[49].ipv4.ip packetDropAddressResolutionFailed:count 0
attr interpolationmode none
attr recordingmode count
attr source packetDropReasonIsAddressResolutionFailed(packetDropped)
attr title "packet drop: address resolution failed, count"
scalar HCCNetwork.host[49].ipv4.ip packetDropAddressResolutionFailed:sum(packetBytes) 0
attr interpolationmode none
attr recordingmode sum(packetBytes)
attr source packetDropReasonIsAddressResolutionFailed(packetDropped)
attr title "packet drop: address resolution failed, sum(packetBytes)"
scalar HCCNetwork.host[49].ipv4.ip packetDropHopLimitReached:count 0
attr interpolationmode none
attr recordingmode count
attr source packetDropReasonIsHopLimitReached(packetDropped)
attr title "packet drop: hop limit reached, count"
scalar HCCNetwork.host[49].ipv4.ip packetDropHopLimitReached:sum(packetBytes) 0
attr interpolationmode none
attr recordingmode sum(packetBytes)
attr source packetDropReasonIsHopLimitReached(packetDropped)
attr title "packet drop: hop limit reached, sum(packetBytes)"
scalar HCCNetwork.host[49].ipv4.ip packetDropForwardingDisabled:count 0
attr interpolationmode none
attr recordingmode count
attr source packetDropReasonIsForwardingDisabled(packetDropped)
attr title "packet drop: forwarding disabled, count"
scalar HCCNetwork.host[49].ipv4.ip packetDropForwardingDisabled:sum(packetBytes) 0
attr interpolationmode none
attr recordingmode sum(packetBytes)
attr source packetDropReasonIsForwardingDisabled(packetDropped)
attr title "packet drop: forwarding disabled, sum(packetBytes)"
scalar HCCNetwork.host[49].ipv4.ip packetDropNoInterfaceFound:count 10
attr interpolationmode none
attr recordingmode count
attr source packetDropReasonIsNoInterfaceFound(packetDropped)
attr title "packet drop: no interface found, count"
scalar HCCNetwork.host[49].ipv4.ip packetDropNoInterfaceFound:sum(packetBytes) 440
attr interpolationmode none
attr recordingmode sum(packetBytes)
attr source packetDropReasonIsNoInterfaceFound(packetDropped)
attr title "packet drop: no interface found, sum(packetBytes)"
scalar HCCNetwork.host[49].ipv4.ip packetDropNoRouteFound:count 0
attr interpolationmode none
attr recordingmode count
attr source packetDropReasonIsNoRouteFound(packetDropped)
attr title "packet drop: no route found, count"
scalar HCCNetwork.host[49].ipv4.ip packetDropNoRouteFound:sum(packetBytes) 0
attr interpolationmode none
attr recordingmode sum(packetBytes)
attr source packetDropReasonIsNoRouteFound(packetDropped)
attr title "packet drop: no route found, sum(packetBytes)"
scalar HCCNetwork.host[49].ipv4.ip packetDropUndefined:count 0
attr interpolationmode none
attr recordingmode count
attr source packetDropReasonIsUndefined(packetDropped)
attr title "packet drop: undefined, count"
scalar HCCNetwork.host[49].ipv4.ip packetDropUndefined:sum(packetBytes) 0
attr interpolationmode none
attr recordingmode sum(packetBytes)
attr source packetDropReasonIsUndefined(packetDropped)
attr title "packet drop: undefined, sum(packetBytes)"
par HCCNetwork.host[49].ipv4.arp typename "\"inet.networklayer.arp.ipv4.Arp\""
par HCCNetwork.host[49].ipv4.arp interfaceTableModule "\"HCCNetwork.host[49].interfaceTable\""
par HCCNetwork.host[49].ipv4.arp routingTableModule "\"HCCNetwork.host[49].ipv4.routingTable\""
par HCCNetwork.host[49].ipv4.arp retryTimeout 1s
attr unit s
par HCCNetwork.host[49].ipv4.arp retryCount 3
par HCCNetwork.host[49].ipv4.arp cacheTimeout 120s
attr unit s
par HCCNetwork.host[49].ipv4.arp proxyArpInterfaces "\"\""
scalar HCCNetwork.host[49].ipv4.arp arpResolutionFailed:count 0
attr recordingmode count
attr title "ARP failed resolutions, count"
scalar HCCNetwork.host[49].ipv4.arp arpResolutionCompleted:count 0
attr recordingmode count
attr title "ARP completed resolutions, count"
scalar HCCNetwork.host[49].ipv4.arp arpResolutionInitiated:count 0
attr recordingmode count
attr title "ARP initiated resolutions, count"
scalar HCCNetwork.host[49].ipv4.arp arpReplySent:count 0
attr recordingmode count
attr source arpReplySent
attr title "ARP replies sent, count"
scalar HCCNetwork.host[49].ipv4.arp arpReplySent:sum(packetBytes) 0
attr recordingmode sum(packetBytes)
attr source arpReplySent
attr title "ARP replies sent, sum(packetBytes)"
scalar HCCNetwork.host[49].ipv4.arp arpRequestSent:count 0
attr recordingmode count
attr source arpRequestSent
attr title "ARP request sent, count"
scalar HCCNetwork.host[49].ipv4.arp arpRequestSent:sum(packetBytes) 0
attr recordingmode sum(packetBytes)
attr source arpRequestSent
attr title "ARP request sent, sum(packetBytes)"
par HCCNetwork.host[49].ipv4.lp typename "\"inet.common.MessageDispatcher\""
par HCCNetwork.host[49].ipv4.lp displayStringTextFormat "\"processed %p pk (%l)\""
par HCCNetwork.host[49].ipv4.lp forwardServiceRegistration true
par HCCNetwork.host[49].ipv4.lp forwardProtocolRegistration true
par HCCNetwork.host[49].ipv4 typename "\"inet.networklayer.ipv4.Ipv4NetworkLayer\""
par HCCNetwork.host[49].ipv4 forwarding true
par HCCNetwork.host[49].ipv4 multicastForwarding false
par HCCNetwork.host[49].ipv4 interfaceTableModule "\"HCCNetwork.host[49].interfaceTable\""
par HCCNetwork.host[49].ipv4 displayStringTextFormat "\"%i\""
par HCCNetwork.host[49].nl typename "\"inet.common.MessageDispatcher\""
par HCCNetwork.host[49].nl displayStringTextFormat "\"processed %p pk (%l)\""
par HCCNetwork.host[49].nl forwardServiceRegistration true
par HCCNetwork.host[49].nl forwardProtocolRegistration true
par HCCNetwork.host[49].udp typename "\"inet.transportlayer.udp.Udp\""
par HCCNetwork.host[49].udp interfaceTableModule "\"HCCNetwork.host[49].interfaceTable\""
par HCCNetwork.host[49].udp icmpModule "\"^.ipv4.icmp\""
par HCCNetwork.host[49].udp icmpv6Module "\"^.ipv6.icmpv6\""
par HCCNetwork.host[49].udp crcMode "\"declared\""
attr enum disabled,declared,computed
par HCCNetwork.host[49].udp defaultMulticastLoop true
scalar HCCNetwork.host[49].udp packetReceived:count 0
attr interpolationmode none
attr recordingmode count
attr source packetReceived
attr title "packets received, count"
scalar HCCNetwork.host[49].udp packetReceived:sum(packetBytes) 0
attr interpolationmode none
attr recordingmode sum(packetBytes)
attr source packetReceived
attr title "packets received, sum(packetBytes)"
scalar HCCNetwork.host[49].udp packetSent:count 10
attr interpolationmode none
attr recordingmode count
attr source packetSent
attr title "packets sent, count"
scalar HCCNetwork.host[49].udp packetSent:sum(packetBytes) 240
attr interpolationmode none
attr recordingmode sum(packetBytes)
attr source packetSent
attr title "packets sent, sum(packetBytes)"
scalar HCCNetwork.host[49].udp passedUpPk:count 0
attr interpolationmode none
attr recordingmode count
attr source packetSentToUpper
attr title "packets passed up, count"
scalar HCCNetwork.host[49].udp droppedPkWrongPort:count 0
attr interpolationmode none
attr recordingmode count
attr source packetDropReasonIsNoPortFound(packetDropped)
attr title "packets dropped (wrong port), count"
scalar HCCNetwork.host[49].udp droppedPkBadChecksum:count 0
attr interpolationmode none
attr recordingmode count
attr source packetDropReasonIsIncorrectlyReceived(packetDropped)
attr title "packets dropped (checksum error), count"
par HCCNetwork.host[49].tcp typename "\"inet.transportlayer.tcp.Tcp\""
par HCCNetwork.host[49].tcp crcMode "\"declared\""
attr enum declared,computed
par HCCNetwork.host[49].tcp advertisedWindow 7504
par HCCNetwork.host[49].tcp delayedAcksEnabled false
par HCCNetwork.host[49].tcp nagleEnabled true
par HCCNetwork.host[49].tcp limitedTransmitEnabled false
par HCCNetwork.host[49].tcp increasedIWEnabled false
par HCCNetwork.host[49].tcp sackSupport false
par HCCNetwork.host[49].tcp windowScalingSupport false
par HCCNetwork.host[49].tcp windowScalingFactor -1
par HCCNetwork.host[49].tcp timestampSupport false
par HCCNetwork.host[49].tcp mss 536
par HCCNetwork.host[49].tcp msl 120s
attr unit s
par HCCNetwork.host[49].tcp tcpAlgorithmClass "\"TcpReno\""
par HCCNetwork.host[49].tcp useDataNotification false
par HCCNetwork.host[49].tcp dupthresh 3
par HCCNetwork.host[49].tcp initialSsthresh 4294967295
par HCCNetwork.host[49].tcp stopOperationExtraTime 0s
attr unit s
par HCCNetwork.host[49].tcp stopOperationTimeout 2s
attr unit s
par HCCNetwork.host[49].tcp ecnWillingness false
par HCCNetwork.host[49].tcp dctcpGamma 0.0625
par HCCNetwork.host[49].tn typename "\"inet.common.MessageDispatcher\""
par HCCNetwork.host[49].tn displayStringTextFormat "\"processed %p pk (%l)\""
par HCCNetwork.host[49].tn forwardServiceRegistration true
par HCCNetwork.host[49].tn forwardProtocolRegistration true
par HCCNetwork.host[49].app[0] typename "\"hcc.HCCApp\""
par HCCNetwork.host[49].app[0] localPort 5000
par HCCNetwork.host[49].app[0] destPort 5000
par HCCNetwork.host[49].app[0] destAddress "\"255.255.255.255\""
par HCCNetwork.host[49].app[0] beaconInterval 0.5s
attr unit s
par HCCNetwork.host[49].app[0] neighborValidityInterval 1s
attr unit s
scalar HCCNetwork.host[49].app[0] nodeDegree:mean 0
attr recordingmode mean
attr source nodeDegree
attr title "Node Degree, mean"
scalar HCCNetwork.host[49].app[0] clusterRole:timeavg 1
attr recordingmode timeavg
attr source clusterRole
attr title "Cluster Role, timeavg"
par HCCNetwork.host[49].at typename "\"inet.common.MessageDispatcher\""
par HCCNetwork.host[49].at displayStringTextFormat "\"processed %p pk (%l)\""
par HCCNetwork.host[49].at forwardServiceRegistration true
par HCCNetwork.host[49].at forwardProtocolRegistration true
par HCCNetwork.host[49] typename "\"inet.node.inet.AdhocHost\""
par HCCNetwork.host[49] hasStatus false
par HCCNetwork.host[49] osgModel "\"\""
par HCCNetwork.host[49] osgModelColor "\"\""
par HCCNetwork.host[49] canvasImage "\"\""
par HCCNetwork.host[49] canvasImageColor "\"\""
par HCCNetwork.host[49] recordPcap false
par HCCNetwork.host[49] numPcapRecorders 0
par HCCNetwork.host[49] numLoInterfaces 1
par HCCNetwork.host[49] numWlanInterfaces 1
par HCCNetwork.host[49] numEthInterfaces 0
par HCCNetwork.host[49] numPppInterfaces 0
par HCCNetwork.host[49] numTunInterfaces 0
par HCCNetwork.host[49] numVirtInterfaces 0
par HCCNetwork.host[49] fcsMode "\"declared\""
attr enum declared,computed
par HCCNetwork.host[49] hasIpv4 true
par HCCNetwork.host[49] hasIpv6 false
par HCCNetwork.host[49] hasGn false
par HCCNetwork.host[49] forwarding true
par HCCNetwork.host[49] multicastForwarding false
par HCCNetwork.host[49] hasUdp true
par HCCNetwork.host[49] hasTcp true
par HCCNetwork.host[49] hasSctp false
par HCCNetwork.host[49] numApps 1
par HCCNetwork typename "\"hcc.HCCNetwork\""
par HCCNetwork numHosts 50

