version 3
run Scalability_Analysis-0-20251127-23:15:55-3373
attr configname Scalability_Analysis
attr datetime 20251127-23:15:55
attr datetimef 20251127-231555
attr experiment Scalability_Analysis
attr inifile omnetpp.ini
attr iterationvars ""
attr iterationvarsd ""
attr iterationvarsf ""
attr measurement ""
attr network hcc.HCCNetwork
attr processid 3373
attr repetition 0
attr replication #0
attr resultdir results
attr runnumber 0
attr seedset 0
config image-path ../../inet-4.5.4/images
config description "Vary node count (Larger area, default power for 600m)"
config *.numHosts 50
config *.host[*].mobility.typename MassMobility
config *.host[*].mobility.speed 5mps
config *.host[*].mobility.changeInterval 1s
config *.host[*].mobility.constraintAreaMaxX 600m
config *.host[*].mobility.constraintAreaMaxY 600m
config *.host[*].wlan[0].radio.transmitter.power 500mW
config network hcc.HCCNetwork
config sim-time-limit 10s
config **.loglevel detail
config **.result-recording-modes default
config *.configurator.config "xml(\"<config><interface hosts='*' address='10.0.0.x' netmask='255.255.255.0'/><multicast-group hosts='*' address='224.0.0.1'/></config>\")"
config *.host[*].numApps 1
config *.host[*].app[0].typename hcc.HCCApp
config *.host[*].app[0].localPort 5000
config *.host[*].app[0].destPort 5000
config *.host[*].app[0].destAddress "\"255.255.255.255\""
config *.host[*].app[0].beaconInterval 0.5s
config *.host[*].app[0].neighborValidityInterval 1s
config *.numHosts 5
config *.host[*].mobility.typename MassMobility
config *.host[*].mobility.changeInterval 1s
config *.host[*].mobility.speed 2mps
config *.host[*].mobility.constraintAreaMinX 0m
config *.host[*].mobility.constraintAreaMinY 0m
config *.host[*].mobility.constraintAreaMaxX 200m
config *.host[*].mobility.constraintAreaMaxY 200m
config *.host[*].mobility.constraintAreaMinZ 0m
config *.host[*].mobility.constraintAreaMaxZ 0m
config *.host[*].ipv4.routingTable.routingProtocol.typename ""
config *.host[*].wlan[0].typename Ieee80211Interface
config *.host[*].wlan[0].mac.typename Ieee80211Mac
config *.host[*].wlan[0].mac.useAck false
config *.radioMedium.typename Ieee80211ScalarRadioMedium
config *.radioMedium.pathLoss.typename FreeSpacePathLoss
config *.radioMedium.backgroundNoise.power -110dBm
config *.host[*].wlan[0].radio.typename Ieee80211ScalarRadio
config *.host[*].wlan[0].radio.transmitter.power 10mW
config *.host[*].wlan[0].radio.transmitter.bitrate 2Mbps
config *.host[*].wlan[0].radio.receiver.sensitivity -85dBm
config *.host[*].wlan[0].radio.energyConsumer.sleepCurrent 1uA
config *.host[*].wlan[0].radio.energyConsumer.receiveCurrent 20mA
config *.host[*].wlan[0].radio.energyConsumer.transmitCurrent 50mA

vector 0 HCCNetwork.host[0].lo[0].lo rcvdPkFromHl:vector(packetBytes) ETV
attr interpolationmode none
attr recordingmode vector(packetBytes)
attr source packetReceivedFromUpper
attr title "packets received from higher layer, packetBytes"
vector 1 HCCNetwork.host[0].lo[0].lo passedUpPk:vector(packetBytes) ETV
attr interpolationmode none
attr recordingmode vector(packetBytes)
attr source packetSentToUpper
attr title "packets passed to higher layer, packetBytes"
vector 2 HCCNetwork.host[0].lo[0] packetDropInterfaceDown:vector(packetBytes) ETV
attr interpolationmode none
attr recordingmode vector(packetBytes)
attr source packetDropReasonIsInterfaceDown(packetDropped)
attr title "packet drops: interface down, packetBytes"
vector 3 HCCNetwork.host[0].lo[0] packetDropNoCarrier:vector(packetBytes) ETV
attr interpolationmode none
attr recordingmode vector(packetBytes)
attr source packetDropReasonIsNoCarrier(packetDropped)
attr title "packet drops: no carrier, packetBytes"
vector 4 HCCNetwork.host[0].wlan[0].mac.dcf.channelAccess.pendingQueue queueLength:vector ETV
attr autoWarmupFilter false
attr interpolationmode sample-hold
attr recordingmode vector
attr source "warmup(atomic(constant0(packetPushEnded) + count(packetPushStarted) - count(packetPulled) - count(packetRemoved) - count(packetDropped)))"
attr title "queue length"
attr unit pk
vector 5 HCCNetwork.host[0].wlan[0].mac.dcf.channelAccess.pendingQueue queueBitLength:vector ETV
attr autoWarmupFilter false
attr interpolationmode sample-hold
attr recordingmode vector
attr source "warmup(atomic(constant0(packetPushEnded) + sum(packetLength(packetPushStarted)) - sum(packetLength(packetPulled)) - sum(packetLength(packetRemoved)) - sum(packetLength(packetDropped))))"
attr title "queue bit length"
attr unit b
vector 6 HCCNetwork.host[0].wlan[0].mac.dcf.channelAccess.pendingQueue queueingTime:vector ETV
attr interpolationmode none
attr recordingmode vector
attr source queueingTime(packetPulled)
attr title "queueing times"
attr unit s
vector 7 HCCNetwork.host[0].wlan[0].mac.dcf.channelAccess.pendingQueue incomingPacketLengths:vector ETV
attr interpolationmode none
attr recordingmode vector
attr source packetLength(packetPushStarted)
attr title "incoming packet lengths"
attr unit b
vector 8 HCCNetwork.host[0].wlan[0].mac.dcf.channelAccess.pendingQueue incomingDataRate:vector ETV
attr interpolationmode linear
attr recordingmode vector
attr source throughput(packetPushStarted)
attr title "incoming datarate"
attr unit bps
vector 9 HCCNetwork.host[0].wlan[0].mac.dcf.channelAccess.pendingQueue outgoingPacketLengths:vector ETV
attr interpolationmode none
attr recordingmode vector
attr source packetLength(packetPulled)
attr title "outgoing packet lengths"
attr unit b
vector 10 HCCNetwork.host[0].wlan[0].mac.dcf.channelAccess.pendingQueue outgoingDataRate:vector ETV
attr interpolationmode linear
attr recordingmode vector
attr source throughput(packetPulled)
attr title "outgoing datarate"
attr unit bps
vector 11 HCCNetwork.host[0].wlan[0].mac.dcf.channelAccess.pendingQueue droppedPacketLengthsQueueOverflow:vector ETV
attr interpolationmode none
attr recordingmode vector
attr source packetLength(packetDropReasonIsQueueOverflow(packetDropped))
attr title "dropped packet lengths: queue overflow"
attr unit b
vector 12 HCCNetwork.host[0].wlan[0].mac.dcf.channelAccess.pendingQueue flowQueueingTime:vector ETV
attr interpolationmode none
attr recordingmode vector
attr source queueingTime(demuxFlow(packetPulled))
attr title "flow queueing times"
attr unit s
vector 13 HCCNetwork.host[0].wlan[0].mac.dcf.channelAccess.pendingQueue flowIncomingDataRate:vector ETV
attr interpolationmode linear
attr recordingmode vector
attr source throughput(flowPacketLength(demuxFlow(packetPushStarted)))
attr title "flow specific incoming data rate"
attr unit bps
vector 14 HCCNetwork.host[0].wlan[0].mac.dcf.channelAccess.pendingQueue flowOutgoingDataRate:vector ETV
attr interpolationmode linear
attr recordingmode vector
attr source throughput(flowPacketLength(demuxFlow(packetPulled)))
attr title "flow specific outgoing data rate"
attr unit bps
vector 15 HCCNetwork.host[0].wlan[0].mac.dcf.channelAccess.inProgressFrames queueingTime:vector ETV
attr interpolationmode none
attr recordingmode vector
attr source queueingTime(packetDequeued)
attr title "queueing times"
vector 16 HCCNetwork.host[0].wlan[0].mac.dcf.channelAccess.inProgressFrames queueLength:vector ETV
attr autoWarmupFilter false
attr interpolationmode sample-hold
attr recordingmode vector
attr source "warmup(count(packetEnqueued) - count(packetDequeued))"
attr title "queue length"
vector 17 HCCNetwork.host[0].wlan[0].mac.dcf.channelAccess.contention backoffPeriodGenerated:vector ETV
attr interpolationmode none
attr recordingmode vector
attr title "backoff periods"
vector 18 HCCNetwork.host[0].wlan[0].mac.dcf.channelAccess.contention backoffActive:vector ETV
attr autoWarmupFilter false
attr interpolationmode sample-hold
attr recordingmode vector
attr source warmup(count(backoffStarted)-count(backoffStopped))
attr title "backoff active"
vector 19 HCCNetwork.host[0].wlan[0].mac.dcf.channelAccess.contention stateChanged:vector ETV
attr enum IDLE,DEFER,IFS_AND_BACKOFF
attr interpolationmode none
attr recordingmode vector
attr title "contention state changed"
attr type enum
vector 20 HCCNetwork.host[0].wlan[0].mac.dcf.recipientMacDataService packetDropDuplicateDetected:vector(packetBytes) ETV
attr interpolationmode none
attr recordingmode vector(packetBytes)
attr source packetDropReasonIsDuplicateDetected(packetDropped)
attr title "packet drops: duplicate detected, packetBytes"
vector 21 HCCNetwork.host[0].wlan[0].mac.dcf.recoveryProcedure contentionWindowChanged:vector ETV
attr interpolationmode sample-hold
attr recordingmode vector
attr title "contention window"
vector 22 HCCNetwork.host[0].wlan[0].mac.dcf packetSentToPeer:vector(packetBytes) ETV
attr interpolationmode none
attr recordingmode vector(packetBytes)
attr title "packets sent, packetBytes"
vector 23 HCCNetwork.host[0].wlan[0].mac.dcf packetSentToPeerUnicast:vector(packetBytes) ETV
attr interpolationmode none
attr recordingmode vector(packetBytes)
attr source ieee80211Unicast(packetSentToPeer)
attr title "packets sent: unicast, packetBytes"
vector 24 HCCNetwork.host[0].wlan[0].mac.dcf packetSentToPeerMulticast:vector(packetBytes) ETV
attr interpolationmode none
attr recordingmode vector(packetBytes)
attr source ieee80211Multicast(packetSentToPeer)
attr title "packets sent: multicast, packetBytes"
vector 25 HCCNetwork.host[0].wlan[0].mac.dcf packetSentToPeerBroadcast:vector(packetBytes) ETV
attr interpolationmode none
attr recordingmode vector(packetBytes)
attr source ieee80211Broadcast(packetSentToPeer)
attr title "packets sent: broadcast , packetBytes"
vector 26 HCCNetwork.host[0].wlan[0].mac.dcf packetSentToPeerWithRetry:vector(packetBytes) ETV
attr interpolationmode none
attr recordingmode vector(packetBytes)
attr source ieee80211Retry(packetSentToPeer)
attr title "packets sent: with retry, packetBytes"
vector 27 HCCNetwork.host[0].wlan[0].mac.dcf packetSentToPeerWithoutRetry:vector(packetBytes) ETV
attr interpolationmode none
attr recordingmode vector(packetBytes)
attr source ieee80211NotRetry(packetSentToPeer)
attr title "packets sent: without retry, packetBytes"
vector 28 HCCNetwork.host[0].wlan[0].mac.dcf packetReceivedFromPeer:vector(packetBytes) ETV
attr interpolationmode none
attr recordingmode vector(packetBytes)
attr title "packets received, packetBytes"
vector 29 HCCNetwork.host[0].wlan[0].mac.dcf packetReceivedFromPeerUnicast:vector(packetBytes) ETV
attr interpolationmode none
attr recordingmode vector(packetBytes)
attr source ieee80211Unicast(packetReceivedFromPeer)
attr title "packets received: unicast, packetBytes"
vector 30 HCCNetwork.host[0].wlan[0].mac.dcf packetReceivedFromPeerMulticast:vector(packetBytes) ETV
attr interpolationmode none
attr recordingmode vector(packetBytes)
attr source ieee80211Multicast(packetReceivedFromPeer)
attr title "packets received: multicast, packetBytes"
vector 31 HCCNetwork.host[0].wlan[0].mac.dcf packetReceivedFromPeerBroadcast:vector(packetBytes) ETV
attr interpolationmode none
attr recordingmode vector(packetBytes)
attr source ieee80211Broadcast(packetReceivedFromPeer)
attr title "packets received: broadcast, packetBytes"
vector 32 HCCNetwork.host[0].wlan[0].mac.dcf packetReceivedFromPeerWithRetry:vector(packetBytes) ETV
attr interpolationmode none
attr recordingmode vector(packetBytes)
attr source ieee80211Retry(packetReceivedFromPeer)
attr title "packets received: with retry, packetBytes"
vector 33 HCCNetwork.host[0].wlan[0].mac.dcf packetReceivedFromPeerWithoutRetry:vector(packetBytes) ETV
attr interpolationmode none
attr recordingmode vector(packetBytes)
attr source ieee80211NotRetry(packetReceivedFromPeer)
attr title "packets received: without retry, packetBytes"
vector 34 HCCNetwork.host[0].wlan[0].mac.dcf packetDrop:vector(packetBytes) ETV
attr interpolationmode none
attr recordingmode vector(packetBytes)
attr source packetDropped
attr title "packet drops, packetBytes"
vector 35 HCCNetwork.host[0].wlan[0].mac.dcf packetDropNotAddressedToUs:vector(packetBytes) ETV
attr interpolationmode none
attr recordingmode vector(packetBytes)
attr source packetDropReasonIsNotAddressedToUs(packetDropped)
attr title "packet drops: not addressed to us, packetBytes"
vector 36 HCCNetwork.host[0].wlan[0].mac.dcf packetDropQueueOverflow:vector(packetBytes) ETV
attr interpolationmode none
attr recordingmode vector(packetBytes)
attr source packetDropReasonIsQueueOverflow(packetDropped)
attr title "packet drops: queue overflow, packetBytes"
vector 37 HCCNetwork.host[0].wlan[0].mac.dcf packetDropRetryLimitReached:vector(packetBytes) ETV
attr interpolationmode none
attr recordingmode vector(packetBytes)
attr source packetDropReasonIsRetryLimitReached(packetDropped)
attr title "packet drops: retry limit reached, packetBytes"
vector 38 HCCNetwork.host[0].wlan[0].mac.dcf frameSequenceActive:vector ETV
attr autoWarmupFilter false
attr interpolationmode sample-hold
attr recordingmode vector
attr source warmup(count(frameSequenceStarted)-count(frameSequenceFinished))
attr title "frame sequence active"
vector 39 HCCNetwork.host[0].wlan[0].mac.dcf datarateSelected:vector ETV
attr interpolationmode none
attr recordingmode vector
attr title "datarates selected"
vector 40 HCCNetwork.host[0].wlan[0].mac.rx nav:vector ETV
attr interpolationmode linear
attr recordingmode vector
attr source navChanged
attr title "network allocation vector"
vector 41 HCCNetwork.host[0].wlan[0].mac packetSentToUpper:vector(packetBytes) ETV
attr interpolationmode none
attr recordingmode vector(packetBytes)
attr title "packets sent to upper layer, packetBytes"
vector 42 HCCNetwork.host[0].wlan[0].mac packetSentToLower:vector(packetBytes) ETV
attr interpolationmode none
attr recordingmode vector(packetBytes)
attr title "packets sent to lower layer, packetBytes"
vector 43 HCCNetwork.host[0].wlan[0].mac packetReceivedFromUpper:vector(packetBytes) ETV
attr interpolationmode none
attr recordingmode vector(packetBytes)
attr title "packets received from upper layer, packetBytes"
vector 44 HCCNetwork.host[0].wlan[0].mac packetReceivedFromLower:vector(packetBytes) ETV
attr interpolationmode none
attr recordingmode vector(packetBytes)
attr title "packets received from lower layer, packetBytes"
vector 45 HCCNetwork.host[0].wlan[0].mac packetDrop:vector(packetBytes) ETV
attr interpolationmode none
attr recordingmode vector(packetBytes)
attr source packetDropped
attr title "packet drops, packetBytes"
vector 46 HCCNetwork.host[0].wlan[0].mac packetDropIncorrectlyReceived:vector(packetBytes) ETV
attr interpolationmode none
attr recordingmode vector(packetBytes)
attr source packetDropReasonIsIncorrectlyReceived(packetDropped)
attr title "packet drops: incorrectly received, packetBytes"
vector 47 HCCNetwork.host[0].wlan[0].mac packetDropNotAddressedToUs:vector(packetBytes) ETV
attr interpolationmode none
attr recordingmode vector(packetBytes)
attr source packetDropReasonIsNotAddressedToUs(packetDropped)
attr title "packet drops: not addressed to us, packetBytes"
vector 48 HCCNetwork.host[0].wlan[0].mac packetDropQueueOverflow:vector(packetBytes) ETV
attr interpolationmode none
attr recordingmode vector(packetBytes)
attr source packetDropReasonIsQueueOverflow(packetDropped)
attr title "packet drops: queue overflow, packetBytes"
vector 49 HCCNetwork.host[0].wlan[0].mac packetDropRetryLimitReached:vector(packetBytes) ETV
attr interpolationmode none
attr recordingmode vector(packetBytes)
attr source packetDropReasonIsRetryLimitReached(packetDropped)
attr title "packet drops: retry limit reached, packetBytes"
vector 50 HCCNetwork.host[0].wlan[0].mac packetDropDuplicateDetected:vector(packetBytes) ETV
attr interpolationmode none
attr recordingmode vector(packetBytes)
attr source packetDropReasonIsDuplicateDetected(packetDropped)
attr title "packet drops: duplicate detected, packetBytes"
vector 51 HCCNetwork.host[0].wlan[0].mac packetDropOther:vector(packetBytes) ETV
attr interpolationmode none
attr recordingmode vector(packetBytes)
attr source packetDropReasonIsOther(packetDropped)
attr title "packet drops: other, packetBytes"
vector 52 HCCNetwork.host[0].wlan[0].radio radioMode:vector ETV
attr interpolationmode sample-hold
attr recordingmode vector
attr source radioModeChanged
attr title "Radio mode"
vector 53 HCCNetwork.host[0].wlan[0].radio receptionState:vector ETV
attr interpolationmode sample-hold
attr recordingmode vector
attr source receptionStateChanged
attr title "Radio reception state"
vector 54 HCCNetwork.host[0].wlan[0].radio transmissionState:vector ETV
attr interpolationmode sample-hold
attr recordingmode vector
attr source transmissionStateChanged
attr title "Radio transmission state"
vector 55 HCCNetwork.host[0].wlan[0].radio radioChannel:vector ETV
attr interpolationmode sample-hold
attr recordingmode vector
attr source radioChannelChanged
attr title "Radio channel"
vector 56 HCCNetwork.host[0].wlan[0] packetDropInterfaceDown:vector(packetBytes) ETV
attr interpolationmode none
attr recordingmode vector(packetBytes)
attr source packetDropReasonIsInterfaceDown(packetDropped)
attr title "packet drops: interface down, packetBytes"
vector 57 HCCNetwork.host[0].wlan[0] packetDropNoCarrier:vector(packetBytes) ETV
attr interpolationmode none
attr recordingmode vector(packetBytes)
attr source packetDropReasonIsNoCarrier(packetDropped)
attr title "packet drops: no carrier, packetBytes"
vector 58 HCCNetwork.host[0].ipv4.ip packetDropAddressResolutionFailed:vector(packetBytes) ETV
attr interpolationmode none
attr recordingmode vector(packetBytes)
attr source packetDropReasonIsAddressResolutionFailed(packetDropped)
attr title "packet drop: address resolution failed, packetBytes"
vector 59 HCCNetwork.host[0].ipv4.ip packetDropHopLimitReached:vector(packetBytes) ETV
attr interpolationmode none
attr recordingmode vector(packetBytes)
attr source packetDropReasonIsHopLimitReached(packetDropped)
attr title "packet drop: hop limit reached, packetBytes"
vector 60 HCCNetwork.host[0].ipv4.ip packetDropForwardingDisabled:vector(packetBytes) ETV
attr interpolationmode none
attr recordingmode vector(packetBytes)
attr source packetDropReasonIsForwardingDisabled(packetDropped)
attr title "packet drop: forwarding disabled, packetBytes"
vector 61 HCCNetwork.host[0].ipv4.ip packetDropNoInterfaceFound:vector(packetBytes) ETV
attr interpolationmode none
attr recordingmode vector(packetBytes)
attr source packetDropReasonIsNoInterfaceFound(packetDropped)
attr title "packet drop: no interface found, packetBytes"
vector 62 HCCNetwork.host[0].ipv4.ip packetDropNoRouteFound:vector(packetBytes) ETV
attr interpolationmode none
attr recordingmode vector(packetBytes)
attr source packetDropReasonIsNoRouteFound(packetDropped)
attr title "packet drop: no route found, packetBytes"
vector 63 HCCNetwork.host[0].ipv4.ip packetDropUndefined:vector(packetBytes) ETV
attr interpolationmode none
attr recordingmode vector(packetBytes)
attr source packetDropReasonIsUndefined(packetDropped)
attr title "packet drop: undefined, packetBytes"
vector 64 HCCNetwork.host[0].ipv4.arp arpRequestSent:vector(packetBytes) ETV
attr recordingmode vector(packetBytes)
attr source arpRequestSent
attr title "ARP request sent, packetBytes"
vector 65 HCCNetwork.host[0].ipv4.arp arpReplySent:vector(packetBytes) ETV
attr recordingmode vector(packetBytes)
attr source arpReplySent
attr title "ARP replies sent, packetBytes"
vector 66 HCCNetwork.host[0].udp packetSent:vector(packetBytes) ETV
attr interpolationmode none
attr recordingmode vector(packetBytes)
attr source packetSent
attr title "packets sent, packetBytes"
vector 67 HCCNetwork.host[0].udp packetReceived:vector(packetBytes) ETV
attr interpolationmode none
attr recordingmode vector(packetBytes)
attr source packetReceived
attr title "packets received, packetBytes"
vector 68 HCCNetwork.host[0].udp passedUpPk:vector(count) ETV
attr interpolationmode none
attr recordingmode vector(count)
attr source packetSentToUpper
attr title "packets passed up, count"
vector 69 HCCNetwork.host[0].udp droppedPkWrongPort:vector(count) ETV
attr interpolationmode none
attr recordingmode vector(count)
attr source packetDropReasonIsNoPortFound(packetDropped)
attr title "packets dropped (wrong port), count"
vector 70 HCCNetwork.host[0].udp droppedPkBadChecksum:vector(count) ETV
attr interpolationmode none
attr recordingmode vector(count)
attr source packetDropReasonIsIncorrectlyReceived(packetDropped)
attr title "packets dropped (checksum error), count"
vector 71 HCCNetwork.host[0].app[0] clusterRole:vector ETV
attr recordingmode vector
attr source clusterRole
attr title "Cluster Role"
vector 72 HCCNetwork.host[0].app[0] nodeDegree:vector ETV
attr recordingmode vector
attr source nodeDegree
attr title "Node Degree"
vector 73 HCCNetwork.host[1].lo[0].lo rcvdPkFromHl:vector(packetBytes) ETV
attr interpolationmode none
attr recordingmode vector(packetBytes)
attr source packetReceivedFromUpper
attr title "packets received from higher layer, packetBytes"
vector 74 HCCNetwork.host[1].lo[0].lo passedUpPk:vector(packetBytes) ETV
attr interpolationmode none
attr recordingmode vector(packetBytes)
attr source packetSentToUpper
attr title "packets passed to higher layer, packetBytes"
vector 75 HCCNetwork.host[1].lo[0] packetDropInterfaceDown:vector(packetBytes) ETV
attr interpolationmode none
attr recordingmode vector(packetBytes)
attr source packetDropReasonIsInterfaceDown(packetDropped)
attr title "packet drops: interface down, packetBytes"
vector 76 HCCNetwork.host[1].lo[0] packetDropNoCarrier:vector(packetBytes) ETV
attr interpolationmode none
attr recordingmode vector(packetBytes)
attr source packetDropReasonIsNoCarrier(packetDropped)
attr title "packet drops: no carrier, packetBytes"
vector 77 HCCNetwork.host[1].wlan[0].mac.dcf.channelAccess.pendingQueue queueLength:vector ETV
attr autoWarmupFilter false
attr interpolationmode sample-hold
attr recordingmode vector
attr source "warmup(atomic(constant0(packetPushEnded) + count(packetPushStarted) - count(packetPulled) - count(packetRemoved) - count(packetDropped)))"
attr title "queue length"
attr unit pk
vector 78 HCCNetwork.host[1].wlan[0].mac.dcf.channelAccess.pendingQueue queueBitLength:vector ETV
attr autoWarmupFilter false
attr interpolationmode sample-hold
attr recordingmode vector
attr source "warmup(atomic(constant0(packetPushEnded) + sum(packetLength(packetPushStarted)) - sum(packetLength(packetPulled)) - sum(packetLength(packetRemoved)) - sum(packetLength(packetDropped))))"
attr title "queue bit length"
attr unit b
vector 79 HCCNetwork.host[1].wlan[0].mac.dcf.channelAccess.pendingQueue queueingTime:vector ETV
attr interpolationmode none
attr recordingmode vector
attr source queueingTime(packetPulled)
attr title "queueing times"
attr unit s
vector 80 HCCNetwork.host[1].wlan[0].mac.dcf.channelAccess.pendingQueue incomingPacketLengths:vector ETV
attr interpolationmode none
attr recordingmode vector
attr source packetLength(packetPushStarted)
attr title "incoming packet lengths"
attr unit b
vector 81 HCCNetwork.host[1].wlan[0].mac.dcf.channelAccess.pendingQueue incomingDataRate:vector ETV
attr interpolationmode linear
attr recordingmode vector
attr source throughput(packetPushStarted)
attr title "incoming datarate"
attr unit bps
vector 82 HCCNetwork.host[1].wlan[0].mac.dcf.channelAccess.pendingQueue outgoingPacketLengths:vector ETV
attr interpolationmode none
attr recordingmode vector
attr source packetLength(packetPulled)
attr title "outgoing packet lengths"
attr unit b
vector 83 HCCNetwork.host[1].wlan[0].mac.dcf.channelAccess.pendingQueue outgoingDataRate:vector ETV
attr interpolationmode linear
attr recordingmode vector
attr source throughput(packetPulled)
attr title "outgoing datarate"
attr unit bps
vector 84 HCCNetwork.host[1].wlan[0].mac.dcf.channelAccess.pendingQueue droppedPacketLengthsQueueOverflow:vector ETV
attr interpolationmode none
attr recordingmode vector
attr source packetLength(packetDropReasonIsQueueOverflow(packetDropped))
attr title "dropped packet lengths: queue overflow"
attr unit b
vector 85 HCCNetwork.host[1].wlan[0].mac.dcf.channelAccess.pendingQueue flowQueueingTime:vector ETV
attr interpolationmode none
attr recordingmode vector
attr source queueingTime(demuxFlow(packetPulled))
attr title "flow queueing times"
attr unit s
vector 86 HCCNetwork.host[1].wlan[0].mac.dcf.channelAccess.pendingQueue flowIncomingDataRate:vector ETV
attr interpolationmode linear
attr recordingmode vector
attr source throughput(flowPacketLength(demuxFlow(packetPushStarted)))
attr title "flow specific incoming data rate"
attr unit bps
vector 87 HCCNetwork.host[1].wlan[0].mac.dcf.channelAccess.pendingQueue flowOutgoingDataRate:vector ETV
attr interpolationmode linear
attr recordingmode vector
attr source throughput(flowPacketLength(demuxFlow(packetPulled)))
attr title "flow specific outgoing data rate"
attr unit bps
vector 88 HCCNetwork.host[1].wlan[0].mac.dcf.channelAccess.inProgressFrames queueingTime:vector ETV
attr interpolationmode none
attr recordingmode vector
attr source queueingTime(packetDequeued)
attr title "queueing times"
vector 89 HCCNetwork.host[1].wlan[0].mac.dcf.channelAccess.inProgressFrames queueLength:vector ETV
attr autoWarmupFilter false
attr interpolationmode sample-hold
attr recordingmode vector
attr source "warmup(count(packetEnqueued) - count(packetDequeued))"
attr title "queue length"
vector 90 HCCNetwork.host[1].wlan[0].mac.dcf.channelAccess.contention backoffPeriodGenerated:vector ETV
attr interpolationmode none
attr recordingmode vector
attr title "backoff periods"
vector 91 HCCNetwork.host[1].wlan[0].mac.dcf.channelAccess.contention backoffActive:vector ETV
attr autoWarmupFilter false
attr interpolationmode sample-hold
attr recordingmode vector
attr source warmup(count(backoffStarted)-count(backoffStopped))
attr title "backoff active"
vector 92 HCCNetwork.host[1].wlan[0].mac.dcf.channelAccess.contention stateChanged:vector ETV
attr enum IDLE,DEFER,IFS_AND_BACKOFF
attr interpolationmode none
attr recordingmode vector
attr title "contention state changed"
attr type enum
vector 93 HCCNetwork.host[1].wlan[0].mac.dcf.recipientMacDataService packetDropDuplicateDetected:vector(packetBytes) ETV
attr interpolationmode none
attr recordingmode vector(packetBytes)
attr source packetDropReasonIsDuplicateDetected(packetDropped)
attr title "packet drops: duplicate detected, packetBytes"
vector 94 HCCNetwork.host[1].wlan[0].mac.dcf.recoveryProcedure contentionWindowChanged:vector ETV
attr interpolationmode sample-hold
attr recordingmode vector
attr title "contention window"
vector 95 HCCNetwork.host[1].wlan[0].mac.dcf packetSentToPeer:vector(packetBytes) ETV
attr interpolationmode none
attr recordingmode vector(packetBytes)
attr title "packets sent, packetBytes"
vector 96 HCCNetwork.host[1].wlan[0].mac.dcf packetSentToPeerUnicast:vector(packetBytes) ETV
attr interpolationmode none
attr recordingmode vector(packetBytes)
attr source ieee80211Unicast(packetSentToPeer)
attr title "packets sent: unicast, packetBytes"
vector 97 HCCNetwork.host[1].wlan[0].mac.dcf packetSentToPeerMulticast:vector(packetBytes) ETV
attr interpolationmode none
attr recordingmode vector(packetBytes)
attr source ieee80211Multicast(packetSentToPeer)
attr title "packets sent: multicast, packetBytes"
vector 98 HCCNetwork.host[1].wlan[0].mac.dcf packetSentToPeerBroadcast:vector(packetBytes) ETV
attr interpolationmode none
attr recordingmode vector(packetBytes)
attr source ieee80211Broadcast(packetSentToPeer)
attr title "packets sent: broadcast , packetBytes"
vector 99 HCCNetwork.host[1].wlan[0].mac.dcf packetSentToPeerWithRetry:vector(packetBytes) ETV
attr interpolationmode none
attr recordingmode vector(packetBytes)
attr source ieee80211Retry(packetSentToPeer)
attr title "packets sent: with retry, packetBytes"
vector 100 HCCNetwork.host[1].wlan[0].mac.dcf packetSentToPeerWithoutRetry:vector(packetBytes) ETV
attr interpolationmode none
attr recordingmode vector(packetBytes)
attr source ieee80211NotRetry(packetSentToPeer)
attr title "packets sent: without retry, packetBytes"
vector 101 HCCNetwork.host[1].wlan[0].mac.dcf packetReceivedFromPeer:vector(packetBytes) ETV
attr interpolationmode none
attr recordingmode vector(packetBytes)
attr title "packets received, packetBytes"
vector 102 HCCNetwork.host[1].wlan[0].mac.dcf packetReceivedFromPeerUnicast:vector(packetBytes) ETV
attr interpolationmode none
attr recordingmode vector(packetBytes)
attr source ieee80211Unicast(packetReceivedFromPeer)
attr title "packets received: unicast, packetBytes"
vector 103 HCCNetwork.host[1].wlan[0].mac.dcf packetReceivedFromPeerMulticast:vector(packetBytes) ETV
attr interpolationmode none
attr recordingmode vector(packetBytes)
attr source ieee80211Multicast(packetReceivedFromPeer)
attr title "packets received: multicast, packetBytes"
vector 104 HCCNetwork.host[1].wlan[0].mac.dcf packetReceivedFromPeerBroadcast:vector(packetBytes) ETV
attr interpolationmode none
attr recordingmode vector(packetBytes)
attr source ieee80211Broadcast(packetReceivedFromPeer)
attr title "packets received: broadcast, packetBytes"
vector 105 HCCNetwork.host[1].wlan[0].mac.dcf packetReceivedFromPeerWithRetry:vector(packetBytes) ETV
attr interpolationmode none
attr recordingmode vector(packetBytes)
attr source ieee80211Retry(packetReceivedFromPeer)
attr title "packets received: with retry, packetBytes"
vector 106 HCCNetwork.host[1].wlan[0].mac.dcf packetReceivedFromPeerWithoutRetry:vector(packetBytes) ETV
attr interpolationmode none
attr recordingmode vector(packetBytes)
attr source ieee80211NotRetry(packetReceivedFromPeer)
attr title "packets received: without retry, packetBytes"
vector 107 HCCNetwork.host[1].wlan[0].mac.dcf packetDrop:vector(packetBytes) ETV
attr interpolationmode none
attr recordingmode vector(packetBytes)
attr source packetDropped
attr title "packet drops, packetBytes"
vector 108 HCCNetwork.host[1].wlan[0].mac.dcf packetDropNotAddressedToUs:vector(packetBytes) ETV
attr interpolationmode none
attr recordingmode vector(packetBytes)
attr source packetDropReasonIsNotAddressedToUs(packetDropped)
attr title "packet drops: not addressed to us, packetBytes"
vector 109 HCCNetwork.host[1].wlan[0].mac.dcf packetDropQueueOverflow:vector(packetBytes) ETV
attr interpolationmode none
attr recordingmode vector(packetBytes)
attr source packetDropReasonIsQueueOverflow(packetDropped)
attr title "packet drops: queue overflow, packetBytes"
vector 110 HCCNetwork.host[1].wlan[0].mac.dcf packetDropRetryLimitReached:vector(packetBytes) ETV
attr interpolationmode none
attr recordingmode vector(packetBytes)
attr source packetDropReasonIsRetryLimitReached(packetDropped)
attr title "packet drops: retry limit reached, packetBytes"
vector 111 HCCNetwork.host[1].wlan[0].mac.dcf frameSequenceActive:vector ETV
attr autoWarmupFilter false
attr interpolationmode sample-hold
attr recordingmode vector
attr source warmup(count(frameSequenceStarted)-count(frameSequenceFinished))
attr title "frame sequence active"
vector 112 HCCNetwork.host[1].wlan[0].mac.dcf datarateSelected:vector ETV
attr interpolationmode none
attr recordingmode vector
attr title "datarates selected"
vector 113 HCCNetwork.host[1].wlan[0].mac.rx nav:vector ETV
attr interpolationmode linear
attr recordingmode vector
attr source navChanged
attr title "network allocation vector"
vector 114 HCCNetwork.host[1].wlan[0].mac packetSentToUpper:vector(packetBytes) ETV
attr interpolationmode none
attr recordingmode vector(packetBytes)
attr title "packets sent to upper layer, packetBytes"
vector 115 HCCNetwork.host[1].wlan[0].mac packetSentToLower:vector(packetBytes) ETV
attr interpolationmode none
attr recordingmode vector(packetBytes)
attr title "packets sent to lower layer, packetBytes"
vector 116 HCCNetwork.host[1].wlan[0].mac packetReceivedFromUpper:vector(packetBytes) ETV
attr interpolationmode none
attr recordingmode vector(packetBytes)
attr title "packets received from upper layer, packetBytes"
vector 117 HCCNetwork.host[1].wlan[0].mac packetReceivedFromLower:vector(packetBytes) ETV
attr interpolationmode none
attr recordingmode vector(packetBytes)
attr title "packets received from lower layer, packetBytes"
vector 118 HCCNetwork.host[1].wlan[0].mac packetDrop:vector(packetBytes) ETV
attr interpolationmode none
attr recordingmode vector(packetBytes)
attr source packetDropped
attr title "packet drops, packetBytes"
vector 119 HCCNetwork.host[1].wlan[0].mac packetDropIncorrectlyReceived:vector(packetBytes) ETV
attr interpolationmode none
attr recordingmode vector(packetBytes)
attr source packetDropReasonIsIncorrectlyReceived(packetDropped)
attr title "packet drops: incorrectly received, packetBytes"
vector 120 HCCNetwork.host[1].wlan[0].mac packetDropNotAddressedToUs:vector(packetBytes) ETV
attr interpolationmode none
attr recordingmode vector(packetBytes)
attr source packetDropReasonIsNotAddressedToUs(packetDropped)
attr title "packet drops: not addressed to us, packetBytes"
vector 121 HCCNetwork.host[1].wlan[0].mac packetDropQueueOverflow:vector(packetBytes) ETV
attr interpolationmode none
attr recordingmode vector(packetBytes)
attr source packetDropReasonIsQueueOverflow(packetDropped)
attr title "packet drops: queue overflow, packetBytes"
vector 122 HCCNetwork.host[1].wlan[0].mac packetDropRetryLimitReached:vector(packetBytes) ETV
attr interpolationmode none
attr recordingmode vector(packetBytes)
attr source packetDropReasonIsRetryLimitReached(packetDropped)
attr title "packet drops: retry limit reached, packetBytes"
vector 123 HCCNetwork.host[1].wlan[0].mac packetDropDuplicateDetected:vector(packetBytes) ETV
attr interpolationmode none
attr recordingmode vector(packetBytes)
attr source packetDropReasonIsDuplicateDetected(packetDropped)
attr title "packet drops: duplicate detected, packetBytes"
vector 124 HCCNetwork.host[1].wlan[0].mac packetDropOther:vector(packetBytes) ETV
attr interpolationmode none
attr recordingmode vector(packetBytes)
attr source packetDropReasonIsOther(packetDropped)
attr title "packet drops: other, packetBytes"
vector 125 HCCNetwork.host[1].wlan[0].radio radioMode:vector ETV
attr interpolationmode sample-hold
attr recordingmode vector
attr source radioModeChanged
attr title "Radio mode"
vector 126 HCCNetwork.host[1].wlan[0].radio receptionState:vector ETV
attr interpolationmode sample-hold
attr recordingmode vector
attr source receptionStateChanged
attr title "Radio reception state"
vector 127 HCCNetwork.host[1].wlan[0].radio transmissionState:vector ETV
attr interpolationmode sample-hold
attr recordingmode vector
attr source transmissionStateChanged
attr title "Radio transmission state"
vector 128 HCCNetwork.host[1].wlan[0].radio radioChannel:vector ETV
attr interpolationmode sample-hold
attr recordingmode vector
attr source radioChannelChanged
attr title "Radio channel"
vector 129 HCCNetwork.host[1].wlan[0] packetDropInterfaceDown:vector(packetBytes) ETV
attr interpolationmode none
attr recordingmode vector(packetBytes)
attr source packetDropReasonIsInterfaceDown(packetDropped)
attr title "packet drops: interface down, packetBytes"
vector 130 HCCNetwork.host[1].wlan[0] packetDropNoCarrier:vector(packetBytes) ETV
attr interpolationmode none
attr recordingmode vector(packetBytes)
attr source packetDropReasonIsNoCarrier(packetDropped)
attr title "packet drops: no carrier, packetBytes"
vector 131 HCCNetwork.host[1].ipv4.ip packetDropAddressResolutionFailed:vector(packetBytes) ETV
attr interpolationmode none
attr recordingmode vector(packetBytes)
attr source packetDropReasonIsAddressResolutionFailed(packetDropped)
attr title "packet drop: address resolution failed, packetBytes"
vector 132 HCCNetwork.host[1].ipv4.ip packetDropHopLimitReached:vector(packetBytes) ETV
attr interpolationmode none
attr recordingmode vector(packetBytes)
attr source packetDropReasonIsHopLimitReached(packetDropped)
attr title "packet drop: hop limit reached, packetBytes"
vector 133 HCCNetwork.host[1].ipv4.ip packetDropForwardingDisabled:vector(packetBytes) ETV
attr interpolationmode none
attr recordingmode vector(packetBytes)
attr source packetDropReasonIsForwardingDisabled(packetDropped)
attr title "packet drop: forwarding disabled, packetBytes"
vector 134 HCCNetwork.host[1].ipv4.ip packetDropNoInterfaceFound:vector(packetBytes) ETV
attr interpolationmode none
attr recordingmode vector(packetBytes)
attr source packetDropReasonIsNoInterfaceFound(packetDropped)
attr title "packet drop: no interface found, packetBytes"
vector 135 HCCNetwork.host[1].ipv4.ip packetDropNoRouteFound:vector(packetBytes) ETV
attr interpolationmode none
attr recordingmode vector(packetBytes)
attr source packetDropReasonIsNoRouteFound(packetDropped)
attr title "packet drop: no route found, packetBytes"
vector 136 HCCNetwork.host[1].ipv4.ip packetDropUndefined:vector(packetBytes) ETV
attr interpolationmode none
attr recordingmode vector(packetBytes)
attr source packetDropReasonIsUndefined(packetDropped)
attr title "packet drop: undefined, packetBytes"
vector 137 HCCNetwork.host[1].ipv4.arp arpRequestSent:vector(packetBytes) ETV
attr recordingmode vector(packetBytes)
attr source arpRequestSent
attr title "ARP request sent, packetBytes"
vector 138 HCCNetwork.host[1].ipv4.arp arpReplySent:vector(packetBytes) ETV
attr recordingmode vector(packetBytes)
attr source arpReplySent
attr title "ARP replies sent, packetBytes"
vector 139 HCCNetwork.host[1].udp packetSent:vector(packetBytes) ETV
attr interpolationmode none
attr recordingmode vector(packetBytes)
attr source packetSent
attr title "packets sent, packetBytes"
vector 140 HCCNetwork.host[1].udp packetReceived:vector(packetBytes) ETV
attr interpolationmode none
attr recordingmode vector(packetBytes)
attr source packetReceived
attr title "packets received, packetBytes"
vector 141 HCCNetwork.host[1].udp passedUpPk:vector(count) ETV
attr interpolationmode none
attr recordingmode vector(count)
attr source packetSentToUpper
attr title "packets passed up, count"
vector 142 HCCNetwork.host[1].udp droppedPkWrongPort:vector(count) ETV
attr interpolationmode none
attr recordingmode vector(count)
attr source packetDropReasonIsNoPortFound(packetDropped)
attr title "packets dropped (wrong port), count"
vector 143 HCCNetwork.host[1].udp droppedPkBadChecksum:vector(count) ETV
attr interpolationmode none
attr recordingmode vector(count)
attr source packetDropReasonIsIncorrectlyReceived(packetDropped)
attr title "packets dropped (checksum error), count"
vector 144 HCCNetwork.host[1].app[0] clusterRole:vector ETV
attr recordingmode vector
attr source clusterRole
attr title "Cluster Role"
vector 145 HCCNetwork.host[1].app[0] nodeDegree:vector ETV
attr recordingmode vector
attr source nodeDegree
attr title "Node Degree"
vector 146 HCCNetwork.host[2].lo[0].lo rcvdPkFromHl:vector(packetBytes) ETV
attr interpolationmode none
attr recordingmode vector(packetBytes)
attr source packetReceivedFromUpper
attr title "packets received from higher layer, packetBytes"
vector 147 HCCNetwork.host[2].lo[0].lo passedUpPk:vector(packetBytes) ETV
attr interpolationmode none
attr recordingmode vector(packetBytes)
attr source packetSentToUpper
attr title "packets passed to higher layer, packetBytes"
vector 148 HCCNetwork.host[2].lo[0] packetDropInterfaceDown:vector(packetBytes) ETV
attr interpolationmode none
attr recordingmode vector(packetBytes)
attr source packetDropReasonIsInterfaceDown(packetDropped)
attr title "packet drops: interface down, packetBytes"
vector 149 HCCNetwork.host[2].lo[0] packetDropNoCarrier:vector(packetBytes) ETV
attr interpolationmode none
attr recordingmode vector(packetBytes)
attr source packetDropReasonIsNoCarrier(packetDropped)
attr title "packet drops: no carrier, packetBytes"
vector 150 HCCNetwork.host[2].wlan[0].mac.dcf.channelAccess.pendingQueue queueLength:vector ETV
attr autoWarmupFilter false
attr interpolationmode sample-hold
attr recordingmode vector
attr source "warmup(atomic(constant0(packetPushEnded) + count(packetPushStarted) - count(packetPulled) - count(packetRemoved) - count(packetDropped)))"
attr title "queue length"
attr unit pk
vector 151 HCCNetwork.host[2].wlan[0].mac.dcf.channelAccess.pendingQueue queueBitLength:vector ETV
attr autoWarmupFilter false
attr interpolationmode sample-hold
attr recordingmode vector
attr source "warmup(atomic(constant0(packetPushEnded) + sum(packetLength(packetPushStarted)) - sum(packetLength(packetPulled)) - sum(packetLength(packetRemoved)) - sum(packetLength(packetDropped))))"
attr title "queue bit length"
attr unit b
vector 152 HCCNetwork.host[2].wlan[0].mac.dcf.channelAccess.pendingQueue queueingTime:vector ETV
attr interpolationmode none
attr recordingmode vector
attr source queueingTime(packetPulled)
attr title "queueing times"
attr unit s
vector 153 HCCNetwork.host[2].wlan[0].mac.dcf.channelAccess.pendingQueue incomingPacketLengths:vector ETV
attr interpolationmode none
attr recordingmode vector
attr source packetLength(packetPushStarted)
attr title "incoming packet lengths"
attr unit b
vector 154 HCCNetwork.host[2].wlan[0].mac.dcf.channelAccess.pendingQueue incomingDataRate:vector ETV
attr interpolationmode linear
attr recordingmode vector
attr source throughput(packetPushStarted)
attr title "incoming datarate"
attr unit bps
vector 155 HCCNetwork.host[2].wlan[0].mac.dcf.channelAccess.pendingQueue outgoingPacketLengths:vector ETV
attr interpolationmode none
attr recordingmode vector
attr source packetLength(packetPulled)
attr title "outgoing packet lengths"
attr unit b
vector 156 HCCNetwork.host[2].wlan[0].mac.dcf.channelAccess.pendingQueue outgoingDataRate:vector ETV
attr interpolationmode linear
attr recordingmode vector
attr source throughput(packetPulled)
attr title "outgoing datarate"
attr unit bps
vector 157 HCCNetwork.host[2].wlan[0].mac.dcf.channelAccess.pendingQueue droppedPacketLengthsQueueOverflow:vector ETV
attr interpolationmode none
attr recordingmode vector
attr source packetLength(packetDropReasonIsQueueOverflow(packetDropped))
attr title "dropped packet lengths: queue overflow"
attr unit b
vector 158 HCCNetwork.host[2].wlan[0].mac.dcf.channelAccess.pendingQueue flowQueueingTime:vector ETV
attr interpolationmode none
attr recordingmode vector
attr source queueingTime(demuxFlow(packetPulled))
attr title "flow queueing times"
attr unit s
vector 159 HCCNetwork.host[2].wlan[0].mac.dcf.channelAccess.pendingQueue flowIncomingDataRate:vector ETV
attr interpolationmode linear
attr recordingmode vector
attr source throughput(flowPacketLength(demuxFlow(packetPushStarted)))
attr title "flow specific incoming data rate"
attr unit bps
vector 160 HCCNetwork.host[2].wlan[0].mac.dcf.channelAccess.pendingQueue flowOutgoingDataRate:vector ETV
attr interpolationmode linear
attr recordingmode vector
attr source throughput(flowPacketLength(demuxFlow(packetPulled)))
attr title "flow specific outgoing data rate"
attr unit bps
vector 161 HCCNetwork.host[2].wlan[0].mac.dcf.channelAccess.inProgressFrames queueingTime:vector ETV
attr interpolationmode none
attr recordingmode vector
attr source queueingTime(packetDequeued)
attr title "queueing times"
vector 162 HCCNetwork.host[2].wlan[0].mac.dcf.channelAccess.inProgressFrames queueLength:vector ETV
attr autoWarmupFilter false
attr interpolationmode sample-hold
attr recordingmode vector
attr source "warmup(count(packetEnqueued) - count(packetDequeued))"
attr title "queue length"
vector 163 HCCNetwork.host[2].wlan[0].mac.dcf.channelAccess.contention backoffPeriodGenerated:vector ETV
attr interpolationmode none
attr recordingmode vector
attr title "backoff periods"
vector 164 HCCNetwork.host[2].wlan[0].mac.dcf.channelAccess.contention backoffActive:vector ETV
attr autoWarmupFilter false
attr interpolationmode sample-hold
attr recordingmode vector
attr source warmup(count(backoffStarted)-count(backoffStopped))
attr title "backoff active"
vector 165 HCCNetwork.host[2].wlan[0].mac.dcf.channelAccess.contention stateChanged:vector ETV
attr enum IDLE,DEFER,IFS_AND_BACKOFF
attr interpolationmode none
attr recordingmode vector
attr title "contention state changed"
attr type enum
vector 166 HCCNetwork.host[2].wlan[0].mac.dcf.recipientMacDataService packetDropDuplicateDetected:vector(packetBytes) ETV
attr interpolationmode none
attr recordingmode vector(packetBytes)
attr source packetDropReasonIsDuplicateDetected(packetDropped)
attr title "packet drops: duplicate detected, packetBytes"
vector 167 HCCNetwork.host[2].wlan[0].mac.dcf.recoveryProcedure contentionWindowChanged:vector ETV
attr interpolationmode sample-hold
attr recordingmode vector
attr title "contention window"
vector 168 HCCNetwork.host[2].wlan[0].mac.dcf packetSentToPeer:vector(packetBytes) ETV
attr interpolationmode none
attr recordingmode vector(packetBytes)
attr title "packets sent, packetBytes"
vector 169 HCCNetwork.host[2].wlan[0].mac.dcf packetSentToPeerUnicast:vector(packetBytes) ETV
attr interpolationmode none
attr recordingmode vector(packetBytes)
attr source ieee80211Unicast(packetSentToPeer)
attr title "packets sent: unicast, packetBytes"
vector 170 HCCNetwork.host[2].wlan[0].mac.dcf packetSentToPeerMulticast:vector(packetBytes) ETV
attr interpolationmode none
attr recordingmode vector(packetBytes)
attr source ieee80211Multicast(packetSentToPeer)
attr title "packets sent: multicast, packetBytes"
vector 171 HCCNetwork.host[2].wlan[0].mac.dcf packetSentToPeerBroadcast:vector(packetBytes) ETV
attr interpolationmode none
attr recordingmode vector(packetBytes)
attr source ieee80211Broadcast(packetSentToPeer)
attr title "packets sent: broadcast , packetBytes"
vector 172 HCCNetwork.host[2].wlan[0].mac.dcf packetSentToPeerWithRetry:vector(packetBytes) ETV
attr interpolationmode none
attr recordingmode vector(packetBytes)
attr source ieee80211Retry(packetSentToPeer)
attr title "packets sent: with retry, packetBytes"
vector 173 HCCNetwork.host[2].wlan[0].mac.dcf packetSentToPeerWithoutRetry:vector(packetBytes) ETV
attr interpolationmode none
attr recordingmode vector(packetBytes)
attr source ieee80211NotRetry(packetSentToPeer)
attr title "packets sent: without retry, packetBytes"
vector 174 HCCNetwork.host[2].wlan[0].mac.dcf packetReceivedFromPeer:vector(packetBytes) ETV
attr interpolationmode none
attr recordingmode vector(packetBytes)
attr title "packets received, packetBytes"
vector 175 HCCNetwork.host[2].wlan[0].mac.dcf packetReceivedFromPeerUnicast:vector(packetBytes) ETV
attr interpolationmode none
attr recordingmode vector(packetBytes)
attr source ieee80211Unicast(packetReceivedFromPeer)
attr title "packets received: unicast, packetBytes"
vector 176 HCCNetwork.host[2].wlan[0].mac.dcf packetReceivedFromPeerMulticast:vector(packetBytes) ETV
attr interpolationmode none
attr recordingmode vector(packetBytes)
attr source ieee80211Multicast(packetReceivedFromPeer)
attr title "packets received: multicast, packetBytes"
vector 177 HCCNetwork.host[2].wlan[0].mac.dcf packetReceivedFromPeerBroadcast:vector(packetBytes) ETV
attr interpolationmode none
attr recordingmode vector(packetBytes)
attr source ieee80211Broadcast(packetReceivedFromPeer)
attr title "packets received: broadcast, packetBytes"
vector 178 HCCNetwork.host[2].wlan[0].mac.dcf packetReceivedFromPeerWithRetry:vector(packetBytes) ETV
attr interpolationmode none
attr recordingmode vector(packetBytes)
attr source ieee80211Retry(packetReceivedFromPeer)
attr title "packets received: with retry, packetBytes"
vector 179 HCCNetwork.host[2].wlan[0].mac.dcf packetReceivedFromPeerWithoutRetry:vector(packetBytes) ETV
attr interpolationmode none
attr recordingmode vector(packetBytes)
attr source ieee80211NotRetry(packetReceivedFromPeer)
attr title "packets received: without retry, packetBytes"
vector 180 HCCNetwork.host[2].wlan[0].mac.dcf packetDrop:vector(packetBytes) ETV
attr interpolationmode none
attr recordingmode vector(packetBytes)
attr source packetDropped
attr title "packet drops, packetBytes"
vector 181 HCCNetwork.host[2].wlan[0].mac.dcf packetDropNotAddressedToUs:vector(packetBytes) ETV
attr interpolationmode none
attr recordingmode vector(packetBytes)
attr source packetDropReasonIsNotAddressedToUs(packetDropped)
attr title "packet drops: not addressed to us, packetBytes"
vector 182 HCCNetwork.host[2].wlan[0].mac.dcf packetDropQueueOverflow:vector(packetBytes) ETV
attr interpolationmode none
attr recordingmode vector(packetBytes)
attr source packetDropReasonIsQueueOverflow(packetDropped)
attr title "packet drops: queue overflow, packetBytes"
vector 183 HCCNetwork.host[2].wlan[0].mac.dcf packetDropRetryLimitReached:vector(packetBytes) ETV
attr interpolationmode none
attr recordingmode vector(packetBytes)
attr source packetDropReasonIsRetryLimitReached(packetDropped)
attr title "packet drops: retry limit reached, packetBytes"
vector 184 HCCNetwork.host[2].wlan[0].mac.dcf frameSequenceActive:vector ETV
attr autoWarmupFilter false
attr interpolationmode sample-hold
attr recordingmode vector
attr source warmup(count(frameSequenceStarted)-count(frameSequenceFinished))
attr title "frame sequence active"
vector 185 HCCNetwork.host[2].wlan[0].mac.dcf datarateSelected:vector ETV
attr interpolationmode none
attr recordingmode vector
attr title "datarates selected"
vector 186 HCCNetwork.host[2].wlan[0].mac.rx nav:vector ETV
attr interpolationmode linear
attr recordingmode vector
attr source navChanged
attr title "network allocation vector"
vector 187 HCCNetwork.host[2].wlan[0].mac packetSentToUpper:vector(packetBytes) ETV
attr interpolationmode none
attr recordingmode vector(packetBytes)
attr title "packets sent to upper layer, packetBytes"
vector 188 HCCNetwork.host[2].wlan[0].mac packetSentToLower:vector(packetBytes) ETV
attr interpolationmode none
attr recordingmode vector(packetBytes)
attr title "packets sent to lower layer, packetBytes"
vector 189 HCCNetwork.host[2].wlan[0].mac packetReceivedFromUpper:vector(packetBytes) ETV
attr interpolationmode none
attr recordingmode vector(packetBytes)
attr title "packets received from upper layer, packetBytes"
vector 190 HCCNetwork.host[2].wlan[0].mac packetReceivedFromLower:vector(packetBytes) ETV
attr interpolationmode none
attr recordingmode vector(packetBytes)
attr title "packets received from lower layer, packetBytes"
vector 191 HCCNetwork.host[2].wlan[0].mac packetDrop:vector(packetBytes) ETV
attr interpolationmode none
attr recordingmode vector(packetBytes)
attr source packetDropped
attr title "packet drops, packetBytes"
vector 192 HCCNetwork.host[2].wlan[0].mac packetDropIncorrectlyReceived:vector(packetBytes) ETV
attr interpolationmode none
attr recordingmode vector(packetBytes)
attr source packetDropReasonIsIncorrectlyReceived(packetDropped)
attr title "packet drops: incorrectly received, packetBytes"
vector 193 HCCNetwork.host[2].wlan[0].mac packetDropNotAddressedToUs:vector(packetBytes) ETV
attr interpolationmode none
attr recordingmode vector(packetBytes)
attr source packetDropReasonIsNotAddressedToUs(packetDropped)
attr title "packet drops: not addressed to us, packetBytes"
vector 194 HCCNetwork.host[2].wlan[0].mac packetDropQueueOverflow:vector(packetBytes) ETV
attr interpolationmode none
attr recordingmode vector(packetBytes)
attr source packetDropReasonIsQueueOverflow(packetDropped)
attr title "packet drops: queue overflow, packetBytes"
vector 195 HCCNetwork.host[2].wlan[0].mac packetDropRetryLimitReached:vector(packetBytes) ETV
attr interpolationmode none
attr recordingmode vector(packetBytes)
attr source packetDropReasonIsRetryLimitReached(packetDropped)
attr title "packet drops: retry limit reached, packetBytes"
vector 196 HCCNetwork.host[2].wlan[0].mac packetDropDuplicateDetected:vector(packetBytes) ETV
attr interpolationmode none
attr recordingmode vector(packetBytes)
attr source packetDropReasonIsDuplicateDetected(packetDropped)
attr title "packet drops: duplicate detected, packetBytes"
vector 197 HCCNetwork.host[2].wlan[0].mac packetDropOther:vector(packetBytes) ETV
attr interpolationmode none
attr recordingmode vector(packetBytes)
attr source packetDropReasonIsOther(packetDropped)
attr title "packet drops: other, packetBytes"
vector 198 HCCNetwork.host[2].wlan[0].radio radioMode:vector ETV
attr interpolationmode sample-hold
attr recordingmode vector
attr source radioModeChanged
attr title "Radio mode"
vector 199 HCCNetwork.host[2].wlan[0].radio receptionState:vector ETV
attr interpolationmode sample-hold
attr recordingmode vector
attr source receptionStateChanged
attr title "Radio reception state"
vector 200 HCCNetwork.host[2].wlan[0].radio transmissionState:vector ETV
attr interpolationmode sample-hold
attr recordingmode vector
attr source transmissionStateChanged
attr title "Radio transmission state"
vector 201 HCCNetwork.host[2].wlan[0].radio radioChannel:vector ETV
attr interpolationmode sample-hold
attr recordingmode vector
attr source radioChannelChanged
attr title "Radio channel"
vector 202 HCCNetwork.host[2].wlan[0] packetDropInterfaceDown:vector(packetBytes) ETV
attr interpolationmode none
attr recordingmode vector(packetBytes)
attr source packetDropReasonIsInterfaceDown(packetDropped)
attr title "packet drops: interface down, packetBytes"
vector 203 HCCNetwork.host[2].wlan[0] packetDropNoCarrier:vector(packetBytes) ETV
attr interpolationmode none
attr recordingmode vector(packetBytes)
attr source packetDropReasonIsNoCarrier(packetDropped)
attr title "packet drops: no carrier, packetBytes"
vector 204 HCCNetwork.host[2].ipv4.ip packetDropAddressResolutionFailed:vector(packetBytes) ETV
attr interpolationmode none
attr recordingmode vector(packetBytes)
attr source packetDropReasonIsAddressResolutionFailed(packetDropped)
attr title "packet drop: address resolution failed, packetBytes"
vector 205 HCCNetwork.host[2].ipv4.ip packetDropHopLimitReached:vector(packetBytes) ETV
attr interpolationmode none
attr recordingmode vector(packetBytes)
attr source packetDropReasonIsHopLimitReached(packetDropped)
attr title "packet drop: hop limit reached, packetBytes"
vector 206 HCCNetwork.host[2].ipv4.ip packetDropForwardingDisabled:vector(packetBytes) ETV
attr interpolationmode none
attr recordingmode vector(packetBytes)
attr source packetDropReasonIsForwardingDisabled(packetDropped)
attr title "packet drop: forwarding disabled, packetBytes"
vector 207 HCCNetwork.host[2].ipv4.ip packetDropNoInterfaceFound:vector(packetBytes) ETV
attr interpolationmode none
attr recordingmode vector(packetBytes)
attr source packetDropReasonIsNoInterfaceFound(packetDropped)
attr title "packet drop: no interface found, packetBytes"
vector 208 HCCNetwork.host[2].ipv4.ip packetDropNoRouteFound:vector(packetBytes) ETV
attr interpolationmode none
attr recordingmode vector(packetBytes)
attr source packetDropReasonIsNoRouteFound(packetDropped)
attr title "packet drop: no route found, packetBytes"
vector 209 HCCNetwork.host[2].ipv4.ip packetDropUndefined:vector(packetBytes) ETV
attr interpolationmode none
attr recordingmode vector(packetBytes)
attr source packetDropReasonIsUndefined(packetDropped)
attr title "packet drop: undefined, packetBytes"
vector 210 HCCNetwork.host[2].ipv4.arp arpRequestSent:vector(packetBytes) ETV
attr recordingmode vector(packetBytes)
attr source arpRequestSent
attr title "ARP request sent, packetBytes"
vector 211 HCCNetwork.host[2].ipv4.arp arpReplySent:vector(packetBytes) ETV
attr recordingmode vector(packetBytes)
attr source arpReplySent
attr title "ARP replies sent, packetBytes"
vector 212 HCCNetwork.host[2].udp packetSent:vector(packetBytes) ETV
attr interpolationmode none
attr recordingmode vector(packetBytes)
attr source packetSent
attr title "packets sent, packetBytes"
vector 213 HCCNetwork.host[2].udp packetReceived:vector(packetBytes) ETV
attr interpolationmode none
attr recordingmode vector(packetBytes)
attr source packetReceived
attr title "packets received, packetBytes"
vector 214 HCCNetwork.host[2].udp passedUpPk:vector(count) ETV
attr interpolationmode none
attr recordingmode vector(count)
attr source packetSentToUpper
attr title "packets passed up, count"
vector 215 HCCNetwork.host[2].udp droppedPkWrongPort:vector(count) ETV
attr interpolationmode none
attr recordingmode vector(count)
attr source packetDropReasonIsNoPortFound(packetDropped)
attr title "packets dropped (wrong port), count"
vector 216 HCCNetwork.host[2].udp droppedPkBadChecksum:vector(count) ETV
attr interpolationmode none
attr recordingmode vector(count)
attr source packetDropReasonIsIncorrectlyReceived(packetDropped)
attr title "packets dropped (checksum error), count"
vector 217 HCCNetwork.host[2].app[0] clusterRole:vector ETV
attr recordingmode vector
attr source clusterRole
attr title "Cluster Role"
vector 218 HCCNetwork.host[2].app[0] nodeDegree:vector ETV
attr recordingmode vector
attr source nodeDegree
attr title "Node Degree"
vector 219 HCCNetwork.host[3].lo[0].lo rcvdPkFromHl:vector(packetBytes) ETV
attr interpolationmode none
attr recordingmode vector(packetBytes)
attr source packetReceivedFromUpper
attr title "packets received from higher layer, packetBytes"
vector 220 HCCNetwork.host[3].lo[0].lo passedUpPk:vector(packetBytes) ETV
attr interpolationmode none
attr recordingmode vector(packetBytes)
attr source packetSentToUpper
attr title "packets passed to higher layer, packetBytes"
vector 221 HCCNetwork.host[3].lo[0] packetDropInterfaceDown:vector(packetBytes) ETV
attr interpolationmode none
attr recordingmode vector(packetBytes)
attr source packetDropReasonIsInterfaceDown(packetDropped)
attr title "packet drops: interface down, packetBytes"
vector 222 HCCNetwork.host[3].lo[0] packetDropNoCarrier:vector(packetBytes) ETV
attr interpolationmode none
attr recordingmode vector(packetBytes)
attr source packetDropReasonIsNoCarrier(packetDropped)
attr title "packet drops: no carrier, packetBytes"
vector 223 HCCNetwork.host[3].wlan[0].mac.dcf.channelAccess.pendingQueue queueLength:vector ETV
attr autoWarmupFilter false
attr interpolationmode sample-hold
attr recordingmode vector
attr source "warmup(atomic(constant0(packetPushEnded) + count(packetPushStarted) - count(packetPulled) - count(packetRemoved) - count(packetDropped)))"
attr title "queue length"
attr unit pk
vector 224 HCCNetwork.host[3].wlan[0].mac.dcf.channelAccess.pendingQueue queueBitLength:vector ETV
attr autoWarmupFilter false
attr interpolationmode sample-hold
attr recordingmode vector
attr source "warmup(atomic(constant0(packetPushEnded) + sum(packetLength(packetPushStarted)) - sum(packetLength(packetPulled)) - sum(packetLength(packetRemoved)) - sum(packetLength(packetDropped))))"
attr title "queue bit length"
attr unit b
vector 225 HCCNetwork.host[3].wlan[0].mac.dcf.channelAccess.pendingQueue queueingTime:vector ETV
attr interpolationmode none
attr recordingmode vector
attr source queueingTime(packetPulled)
attr title "queueing times"
attr unit s
vector 226 HCCNetwork.host[3].wlan[0].mac.dcf.channelAccess.pendingQueue incomingPacketLengths:vector ETV
attr interpolationmode none
attr recordingmode vector
attr source packetLength(packetPushStarted)
attr title "incoming packet lengths"
attr unit b
vector 227 HCCNetwork.host[3].wlan[0].mac.dcf.channelAccess.pendingQueue incomingDataRate:vector ETV
attr interpolationmode linear
attr recordingmode vector
attr source throughput(packetPushStarted)
attr title "incoming datarate"
attr unit bps
vector 228 HCCNetwork.host[3].wlan[0].mac.dcf.channelAccess.pendingQueue outgoingPacketLengths:vector ETV
attr interpolationmode none
attr recordingmode vector
attr source packetLength(packetPulled)
attr title "outgoing packet lengths"
attr unit b
vector 229 HCCNetwork.host[3].wlan[0].mac.dcf.channelAccess.pendingQueue outgoingDataRate:vector ETV
attr interpolationmode linear
attr recordingmode vector
attr source throughput(packetPulled)
attr title "outgoing datarate"
attr unit bps
vector 230 HCCNetwork.host[3].wlan[0].mac.dcf.channelAccess.pendingQueue droppedPacketLengthsQueueOverflow:vector ETV
attr interpolationmode none
attr recordingmode vector
attr source packetLength(packetDropReasonIsQueueOverflow(packetDropped))
attr title "dropped packet lengths: queue overflow"
attr unit b
vector 231 HCCNetwork.host[3].wlan[0].mac.dcf.channelAccess.pendingQueue flowQueueingTime:vector ETV
attr interpolationmode none
attr recordingmode vector
attr source queueingTime(demuxFlow(packetPulled))
attr title "flow queueing times"
attr unit s
vector 232 HCCNetwork.host[3].wlan[0].mac.dcf.channelAccess.pendingQueue flowIncomingDataRate:vector ETV
attr interpolationmode linear
attr recordingmode vector
attr source throughput(flowPacketLength(demuxFlow(packetPushStarted)))
attr title "flow specific incoming data rate"
attr unit bps
vector 233 HCCNetwork.host[3].wlan[0].mac.dcf.channelAccess.pendingQueue flowOutgoingDataRate:vector ETV
attr interpolationmode linear
attr recordingmode vector
attr source throughput(flowPacketLength(demuxFlow(packetPulled)))
attr title "flow specific outgoing data rate"
attr unit bps
vector 234 HCCNetwork.host[3].wlan[0].mac.dcf.channelAccess.inProgressFrames queueingTime:vector ETV
attr interpolationmode none
attr recordingmode vector
attr source queueingTime(packetDequeued)
attr title "queueing times"
vector 235 HCCNetwork.host[3].wlan[0].mac.dcf.channelAccess.inProgressFrames queueLength:vector ETV
attr autoWarmupFilter false
attr interpolationmode sample-hold
attr recordingmode vector
attr source "warmup(count(packetEnqueued) - count(packetDequeued))"
attr title "queue length"
vector 236 HCCNetwork.host[3].wlan[0].mac.dcf.channelAccess.contention backoffPeriodGenerated:vector ETV
attr interpolationmode none
attr recordingmode vector
attr title "backoff periods"
vector 237 HCCNetwork.host[3].wlan[0].mac.dcf.channelAccess.contention backoffActive:vector ETV
attr autoWarmupFilter false
attr interpolationmode sample-hold
attr recordingmode vector
attr source warmup(count(backoffStarted)-count(backoffStopped))
attr title "backoff active"
vector 238 HCCNetwork.host[3].wlan[0].mac.dcf.channelAccess.contention stateChanged:vector ETV
attr enum IDLE,DEFER,IFS_AND_BACKOFF
attr interpolationmode none
attr recordingmode vector
attr title "contention state changed"
attr type enum
vector 239 HCCNetwork.host[3].wlan[0].mac.dcf.recipientMacDataService packetDropDuplicateDetected:vector(packetBytes) ETV
attr interpolationmode none
attr recordingmode vector(packetBytes)
attr source packetDropReasonIsDuplicateDetected(packetDropped)
attr title "packet drops: duplicate detected, packetBytes"
vector 240 HCCNetwork.host[3].wlan[0].mac.dcf.recoveryProcedure contentionWindowChanged:vector ETV
attr interpolationmode sample-hold
attr recordingmode vector
attr title "contention window"
vector 241 HCCNetwork.host[3].wlan[0].mac.dcf packetSentToPeer:vector(packetBytes) ETV
attr interpolationmode none
attr recordingmode vector(packetBytes)
attr title "packets sent, packetBytes"
vector 242 HCCNetwork.host[3].wlan[0].mac.dcf packetSentToPeerUnicast:vector(packetBytes) ETV
attr interpolationmode none
attr recordingmode vector(packetBytes)
attr source ieee80211Unicast(packetSentToPeer)
attr title "packets sent: unicast, packetBytes"
vector 243 HCCNetwork.host[3].wlan[0].mac.dcf packetSentToPeerMulticast:vector(packetBytes) ETV
attr interpolationmode none
attr recordingmode vector(packetBytes)
attr source ieee80211Multicast(packetSentToPeer)
attr title "packets sent: multicast, packetBytes"
vector 244 HCCNetwork.host[3].wlan[0].mac.dcf packetSentToPeerBroadcast:vector(packetBytes) ETV
attr interpolationmode none
attr recordingmode vector(packetBytes)
attr source ieee80211Broadcast(packetSentToPeer)
attr title "packets sent: broadcast , packetBytes"
vector 245 HCCNetwork.host[3].wlan[0].mac.dcf packetSentToPeerWithRetry:vector(packetBytes) ETV
attr interpolationmode none
attr recordingmode vector(packetBytes)
attr source ieee80211Retry(packetSentToPeer)
attr title "packets sent: with retry, packetBytes"
vector 246 HCCNetwork.host[3].wlan[0].mac.dcf packetSentToPeerWithoutRetry:vector(packetBytes) ETV
attr interpolationmode none
attr recordingmode vector(packetBytes)
attr source ieee80211NotRetry(packetSentToPeer)
attr title "packets sent: without retry, packetBytes"
vector 247 HCCNetwork.host[3].wlan[0].mac.dcf packetReceivedFromPeer:vector(packetBytes) ETV
attr interpolationmode none
attr recordingmode vector(packetBytes)
attr title "packets received, packetBytes"
vector 248 HCCNetwork.host[3].wlan[0].mac.dcf packetReceivedFromPeerUnicast:vector(packetBytes) ETV
attr interpolationmode none
attr recordingmode vector(packetBytes)
attr source ieee80211Unicast(packetReceivedFromPeer)
attr title "packets received: unicast, packetBytes"
vector 249 HCCNetwork.host[3].wlan[0].mac.dcf packetReceivedFromPeerMulticast:vector(packetBytes) ETV
attr interpolationmode none
attr recordingmode vector(packetBytes)
attr source ieee80211Multicast(packetReceivedFromPeer)
attr title "packets received: multicast, packetBytes"
vector 250 HCCNetwork.host[3].wlan[0].mac.dcf packetReceivedFromPeerBroadcast:vector(packetBytes) ETV
attr interpolationmode none
attr recordingmode vector(packetBytes)
attr source ieee80211Broadcast(packetReceivedFromPeer)
attr title "packets received: broadcast, packetBytes"
vector 251 HCCNetwork.host[3].wlan[0].mac.dcf packetReceivedFromPeerWithRetry:vector(packetBytes) ETV
attr interpolationmode none
attr recordingmode vector(packetBytes)
attr source ieee80211Retry(packetReceivedFromPeer)
attr title "packets received: with retry, packetBytes"
vector 252 HCCNetwork.host[3].wlan[0].mac.dcf packetReceivedFromPeerWithoutRetry:vector(packetBytes) ETV
attr interpolationmode none
attr recordingmode vector(packetBytes)
attr source ieee80211NotRetry(packetReceivedFromPeer)
attr title "packets received: without retry, packetBytes"
vector 253 HCCNetwork.host[3].wlan[0].mac.dcf packetDrop:vector(packetBytes) ETV
attr interpolationmode none
attr recordingmode vector(packetBytes)
attr source packetDropped
attr title "packet drops, packetBytes"
vector 254 HCCNetwork.host[3].wlan[0].mac.dcf packetDropNotAddressedToUs:vector(packetBytes) ETV
attr interpolationmode none
attr recordingmode vector(packetBytes)
attr source packetDropReasonIsNotAddressedToUs(packetDropped)
attr title "packet drops: not addressed to us, packetBytes"
vector 255 HCCNetwork.host[3].wlan[0].mac.dcf packetDropQueueOverflow:vector(packetBytes) ETV
attr interpolationmode none
attr recordingmode vector(packetBytes)
attr source packetDropReasonIsQueueOverflow(packetDropped)
attr title "packet drops: queue overflow, packetBytes"
vector 256 HCCNetwork.host[3].wlan[0].mac.dcf packetDropRetryLimitReached:vector(packetBytes) ETV
attr interpolationmode none
attr recordingmode vector(packetBytes)
attr source packetDropReasonIsRetryLimitReached(packetDropped)
attr title "packet drops: retry limit reached, packetBytes"
vector 257 HCCNetwork.host[3].wlan[0].mac.dcf frameSequenceActive:vector ETV
attr autoWarmupFilter false
attr interpolationmode sample-hold
attr recordingmode vector
attr source warmup(count(frameSequenceStarted)-count(frameSequenceFinished))
attr title "frame sequence active"
vector 258 HCCNetwork.host[3].wlan[0].mac.dcf datarateSelected:vector ETV
attr interpolationmode none
attr recordingmode vector
attr title "datarates selected"
vector 259 HCCNetwork.host[3].wlan[0].mac.rx nav:vector ETV
attr interpolationmode linear
attr recordingmode vector
attr source navChanged
attr title "network allocation vector"
vector 260 HCCNetwork.host[3].wlan[0].mac packetSentToUpper:vector(packetBytes) ETV
attr interpolationmode none
attr recordingmode vector(packetBytes)
attr title "packets sent to upper layer, packetBytes"
vector 261 HCCNetwork.host[3].wlan[0].mac packetSentToLower:vector(packetBytes) ETV
attr interpolationmode none
attr recordingmode vector(packetBytes)
attr title "packets sent to lower layer, packetBytes"
vector 262 HCCNetwork.host[3].wlan[0].mac packetReceivedFromUpper:vector(packetBytes) ETV
attr interpolationmode none
attr recordingmode vector(packetBytes)
attr title "packets received from upper layer, packetBytes"
vector 263 HCCNetwork.host[3].wlan[0].mac packetReceivedFromLower:vector(packetBytes) ETV
attr interpolationmode none
attr recordingmode vector(packetBytes)
attr title "packets received from lower layer, packetBytes"
vector 264 HCCNetwork.host[3].wlan[0].mac packetDrop:vector(packetBytes) ETV
attr interpolationmode none
attr recordingmode vector(packetBytes)
attr source packetDropped
attr title "packet drops, packetBytes"
vector 265 HCCNetwork.host[3].wlan[0].mac packetDropIncorrectlyReceived:vector(packetBytes) ETV
attr interpolationmode none
attr recordingmode vector(packetBytes)
attr source packetDropReasonIsIncorrectlyReceived(packetDropped)
attr title "packet drops: incorrectly received, packetBytes"
vector 266 HCCNetwork.host[3].wlan[0].mac packetDropNotAddressedToUs:vector(packetBytes) ETV
attr interpolationmode none
attr recordingmode vector(packetBytes)
attr source packetDropReasonIsNotAddressedToUs(packetDropped)
attr title "packet drops: not addressed to us, packetBytes"
vector 267 HCCNetwork.host[3].wlan[0].mac packetDropQueueOverflow:vector(packetBytes) ETV
attr interpolationmode none
attr recordingmode vector(packetBytes)
attr source packetDropReasonIsQueueOverflow(packetDropped)
attr title "packet drops: queue overflow, packetBytes"
vector 268 HCCNetwork.host[3].wlan[0].mac packetDropRetryLimitReached:vector(packetBytes) ETV
attr interpolationmode none
attr recordingmode vector(packetBytes)
attr source packetDropReasonIsRetryLimitReached(packetDropped)
attr title "packet drops: retry limit reached, packetBytes"
vector 269 HCCNetwork.host[3].wlan[0].mac packetDropDuplicateDetected:vector(packetBytes) ETV
attr interpolationmode none
attr recordingmode vector(packetBytes)
attr source packetDropReasonIsDuplicateDetected(packetDropped)
attr title "packet drops: duplicate detected, packetBytes"
vector 270 HCCNetwork.host[3].wlan[0].mac packetDropOther:vector(packetBytes) ETV
attr interpolationmode none
attr recordingmode vector(packetBytes)
attr source packetDropReasonIsOther(packetDropped)
attr title "packet drops: other, packetBytes"
vector 271 HCCNetwork.host[3].wlan[0].radio radioMode:vector ETV
attr interpolationmode sample-hold
attr recordingmode vector
attr source radioModeChanged
attr title "Radio mode"
vector 272 HCCNetwork.host[3].wlan[0].radio receptionState:vector ETV
attr interpolationmode sample-hold
attr recordingmode vector
attr source receptionStateChanged
attr title "Radio reception state"
vector 273 HCCNetwork.host[3].wlan[0].radio transmissionState:vector ETV
attr interpolationmode sample-hold
attr recordingmode vector
attr source transmissionStateChanged
attr title "Radio transmission state"
vector 274 HCCNetwork.host[3].wlan[0].radio radioChannel:vector ETV
attr interpolationmode sample-hold
attr recordingmode vector
attr source radioChannelChanged
attr title "Radio channel"
vector 275 HCCNetwork.host[3].wlan[0] packetDropInterfaceDown:vector(packetBytes) ETV
attr interpolationmode none
attr recordingmode vector(packetBytes)
attr source packetDropReasonIsInterfaceDown(packetDropped)
attr title "packet drops: interface down, packetBytes"
vector 276 HCCNetwork.host[3].wlan[0] packetDropNoCarrier:vector(packetBytes) ETV
attr interpolationmode none
attr recordingmode vector(packetBytes)
attr source packetDropReasonIsNoCarrier(packetDropped)
attr title "packet drops: no carrier, packetBytes"
vector 277 HCCNetwork.host[3].ipv4.ip packetDropAddressResolutionFailed:vector(packetBytes) ETV
attr interpolationmode none
attr recordingmode vector(packetBytes)
attr source packetDropReasonIsAddressResolutionFailed(packetDropped)
attr title "packet drop: address resolution failed, packetBytes"
vector 278 HCCNetwork.host[3].ipv4.ip packetDropHopLimitReached:vector(packetBytes) ETV
attr interpolationmode none
attr recordingmode vector(packetBytes)
attr source packetDropReasonIsHopLimitReached(packetDropped)
attr title "packet drop: hop limit reached, packetBytes"
vector 279 HCCNetwork.host[3].ipv4.ip packetDropForwardingDisabled:vector(packetBytes) ETV
attr interpolationmode none
attr recordingmode vector(packetBytes)
attr source packetDropReasonIsForwardingDisabled(packetDropped)
attr title "packet drop: forwarding disabled, packetBytes"
vector 280 HCCNetwork.host[3].ipv4.ip packetDropNoInterfaceFound:vector(packetBytes) ETV
attr interpolationmode none
attr recordingmode vector(packetBytes)
attr source packetDropReasonIsNoInterfaceFound(packetDropped)
attr title "packet drop: no interface found, packetBytes"
vector 281 HCCNetwork.host[3].ipv4.ip packetDropNoRouteFound:vector(packetBytes) ETV
attr interpolationmode none
attr recordingmode vector(packetBytes)
attr source packetDropReasonIsNoRouteFound(packetDropped)
attr title "packet drop: no route found, packetBytes"
vector 282 HCCNetwork.host[3].ipv4.ip packetDropUndefined:vector(packetBytes) ETV
attr interpolationmode none
attr recordingmode vector(packetBytes)
attr source packetDropReasonIsUndefined(packetDropped)
attr title "packet drop: undefined, packetBytes"
vector 283 HCCNetwork.host[3].ipv4.arp arpRequestSent:vector(packetBytes) ETV
attr recordingmode vector(packetBytes)
attr source arpRequestSent
attr title "ARP request sent, packetBytes"
vector 284 HCCNetwork.host[3].ipv4.arp arpReplySent:vector(packetBytes) ETV
attr recordingmode vector(packetBytes)
attr source arpReplySent
attr title "ARP replies sent, packetBytes"
vector 285 HCCNetwork.host[3].udp packetSent:vector(packetBytes) ETV
attr interpolationmode none
attr recordingmode vector(packetBytes)
attr source packetSent
attr title "packets sent, packetBytes"
vector 286 HCCNetwork.host[3].udp packetReceived:vector(packetBytes) ETV
attr interpolationmode none
attr recordingmode vector(packetBytes)
attr source packetReceived
attr title "packets received, packetBytes"
vector 287 HCCNetwork.host[3].udp passedUpPk:vector(count) ETV
attr interpolationmode none
attr recordingmode vector(count)
attr source packetSentToUpper
attr title "packets passed up, count"
vector 288 HCCNetwork.host[3].udp droppedPkWrongPort:vector(count) ETV
attr interpolationmode none
attr recordingmode vector(count)
attr source packetDropReasonIsNoPortFound(packetDropped)
attr title "packets dropped (wrong port), count"
vector 289 HCCNetwork.host[3].udp droppedPkBadChecksum:vector(count) ETV
attr interpolationmode none
attr recordingmode vector(count)
attr source packetDropReasonIsIncorrectlyReceived(packetDropped)
attr title "packets dropped (checksum error), count"
vector 290 HCCNetwork.host[3].app[0] clusterRole:vector ETV
attr recordingmode vector
attr source clusterRole
attr title "Cluster Role"
vector 291 HCCNetwork.host[3].app[0] nodeDegree:vector ETV
attr recordingmode vector
attr source nodeDegree
attr title "Node Degree"
vector 292 HCCNetwork.host[4].lo[0].lo rcvdPkFromHl:vector(packetBytes) ETV
attr interpolationmode none
attr recordingmode vector(packetBytes)
attr source packetReceivedFromUpper
attr title "packets received from higher layer, packetBytes"
vector 293 HCCNetwork.host[4].lo[0].lo passedUpPk:vector(packetBytes) ETV
attr interpolationmode none
attr recordingmode vector(packetBytes)
attr source packetSentToUpper
attr title "packets passed to higher layer, packetBytes"
vector 294 HCCNetwork.host[4].lo[0] packetDropInterfaceDown:vector(packetBytes) ETV
attr interpolationmode none
attr recordingmode vector(packetBytes)
attr source packetDropReasonIsInterfaceDown(packetDropped)
attr title "packet drops: interface down, packetBytes"
vector 295 HCCNetwork.host[4].lo[0] packetDropNoCarrier:vector(packetBytes) ETV
attr interpolationmode none
attr recordingmode vector(packetBytes)
attr source packetDropReasonIsNoCarrier(packetDropped)
attr title "packet drops: no carrier, packetBytes"
vector 296 HCCNetwork.host[4].wlan[0].mac.dcf.channelAccess.pendingQueue queueLength:vector ETV
attr autoWarmupFilter false
attr interpolationmode sample-hold
attr recordingmode vector
attr source "warmup(atomic(constant0(packetPushEnded) + count(packetPushStarted) - count(packetPulled) - count(packetRemoved) - count(packetDropped)))"
attr title "queue length"
attr unit pk
vector 297 HCCNetwork.host[4].wlan[0].mac.dcf.channelAccess.pendingQueue queueBitLength:vector ETV
attr autoWarmupFilter false
attr interpolationmode sample-hold
attr recordingmode vector
attr source "warmup(atomic(constant0(packetPushEnded) + sum(packetLength(packetPushStarted)) - sum(packetLength(packetPulled)) - sum(packetLength(packetRemoved)) - sum(packetLength(packetDropped))))"
attr title "queue bit length"
attr unit b
vector 298 HCCNetwork.host[4].wlan[0].mac.dcf.channelAccess.pendingQueue queueingTime:vector ETV
attr interpolationmode none
attr recordingmode vector
attr source queueingTime(packetPulled)
attr title "queueing times"
attr unit s
vector 299 HCCNetwork.host[4].wlan[0].mac.dcf.channelAccess.pendingQueue incomingPacketLengths:vector ETV
attr interpolationmode none
attr recordingmode vector
attr source packetLength(packetPushStarted)
attr title "incoming packet lengths"
attr unit b
vector 300 HCCNetwork.host[4].wlan[0].mac.dcf.channelAccess.pendingQueue incomingDataRate:vector ETV
attr interpolationmode linear
attr recordingmode vector
attr source throughput(packetPushStarted)
attr title "incoming datarate"
attr unit bps
vector 301 HCCNetwork.host[4].wlan[0].mac.dcf.channelAccess.pendingQueue outgoingPacketLengths:vector ETV
attr interpolationmode none
attr recordingmode vector
attr source packetLength(packetPulled)
attr title "outgoing packet lengths"
attr unit b
vector 302 HCCNetwork.host[4].wlan[0].mac.dcf.channelAccess.pendingQueue outgoingDataRate:vector ETV
attr interpolationmode linear
attr recordingmode vector
attr source throughput(packetPulled)
attr title "outgoing datarate"
attr unit bps
vector 303 HCCNetwork.host[4].wlan[0].mac.dcf.channelAccess.pendingQueue droppedPacketLengthsQueueOverflow:vector ETV
attr interpolationmode none
attr recordingmode vector
attr source packetLength(packetDropReasonIsQueueOverflow(packetDropped))
attr title "dropped packet lengths: queue overflow"
attr unit b
vector 304 HCCNetwork.host[4].wlan[0].mac.dcf.channelAccess.pendingQueue flowQueueingTime:vector ETV
attr interpolationmode none
attr recordingmode vector
attr source queueingTime(demuxFlow(packetPulled))
attr title "flow queueing times"
attr unit s
vector 305 HCCNetwork.host[4].wlan[0].mac.dcf.channelAccess.pendingQueue flowIncomingDataRate:vector ETV
attr interpolationmode linear
attr recordingmode vector
attr source throughput(flowPacketLength(demuxFlow(packetPushStarted)))
attr title "flow specific incoming data rate"
attr unit bps
vector 306 HCCNetwork.host[4].wlan[0].mac.dcf.channelAccess.pendingQueue flowOutgoingDataRate:vector ETV
attr interpolationmode linear
attr recordingmode vector
attr source throughput(flowPacketLength(demuxFlow(packetPulled)))
attr title "flow specific outgoing data rate"
attr unit bps
vector 307 HCCNetwork.host[4].wlan[0].mac.dcf.channelAccess.inProgressFrames queueingTime:vector ETV
attr interpolationmode none
attr recordingmode vector
attr source queueingTime(packetDequeued)
attr title "queueing times"
vector 308 HCCNetwork.host[4].wlan[0].mac.dcf.channelAccess.inProgressFrames queueLength:vector ETV
attr autoWarmupFilter false
attr interpolationmode sample-hold
attr recordingmode vector
attr source "warmup(count(packetEnqueued) - count(packetDequeued))"
attr title "queue length"
vector 309 HCCNetwork.host[4].wlan[0].mac.dcf.channelAccess.contention backoffPeriodGenerated:vector ETV
attr interpolationmode none
attr recordingmode vector
attr title "backoff periods"
vector 310 HCCNetwork.host[4].wlan[0].mac.dcf.channelAccess.contention backoffActive:vector ETV
attr autoWarmupFilter false
attr interpolationmode sample-hold
attr recordingmode vector
attr source warmup(count(backoffStarted)-count(backoffStopped))
attr title "backoff active"
vector 311 HCCNetwork.host[4].wlan[0].mac.dcf.channelAccess.contention stateChanged:vector ETV
attr enum IDLE,DEFER,IFS_AND_BACKOFF
attr interpolationmode none
attr recordingmode vector
attr title "contention state changed"
attr type enum
[...]
2636	3805	4.5	0
2636	3805	4.572490189546	0
2638	3805	0.1	0
2638	3805	0.2	0
2638	3805	0.3	0
2638	3805	0.4	0
2638	3805	0.5	0
2638	3805	0.6	0
2638	3805	0.7	0
2638	3805	0.8	0
2638	3805	0.9	0
2638	3805	1	0
2638	3805	1.1	0
2638	3805	1.2	0
2638	3805	1.3	0
2638	3805	1.4	0
2638	3805	1.5	0
2638	3805	1.6	0
2638	3805	1.7	0
2638	3805	1.8	0
2638	3805	1.9	0
2638	3805	2	0
2638	3805	2.1	0
2638	3805	2.2	0
2638	3805	2.3	0
2638	3805	2.4	0
2638	3805	2.5	0
2638	3805	2.6	0
2638	3805	2.7	0
2638	3805	2.8	0
2638	3805	2.9	0
2638	3805	3	0
2638	3805	3.1	0
2638	3805	3.2	0
2638	3805	3.3	0
2638	3805	3.4	0
2638	3805	3.5	0
2638	3805	3.6	0
2638	3805	3.7	0
2638	3805	3.8	0
2638	3805	3.9	0
2638	3805	4	0
2638	3805	4.1	0
2638	3805	4.2	0
2638	3805	4.3	0
2638	3805	4.4	0
2638	3805	4.5	0
2638	3805	4.572490189546	0
2709	3805	0.1	0
2709	3805	0.2	0
2709	3805	0.3	0
2709	3805	0.4	0
2709	3805	0.5	0
2709	3805	0.6	0
2709	3805	0.7	0
2709	3805	0.8	0
2709	3805	0.9	0
2709	3805	1	0
2709	3805	1.1	0
2709	3805	1.2	0
2709	3805	1.3	0
2709	3805	1.4	0
2709	3805	1.5	0
2709	3805	1.6	0
2709	3805	1.7	0
2709	3805	1.8	0
2709	3805	1.9	0
2709	3805	2	0
2709	3805	2.1	0
2709	3805	2.2	0
2709	3805	2.3	0
2709	3805	2.4	0
2709	3805	2.5	0
2709	3805	2.6	0
2709	3805	2.7	0
2709	3805	2.8	0
2709	3805	2.9	0
2709	3805	3	0
2709	3805	3.1	0
2709	3805	3.2	0
2709	3805	3.3	0
2709	3805	3.4	0
2709	3805	3.5	0
2709	3805	3.6	0
2709	3805	3.7	0
2709	3805	3.8	0
2709	3805	3.9	0
2709	3805	4	0
2709	3805	4.1	0
2709	3805	4.2	0
2709	3805	4.3	0
2709	3805	4.4	0
2709	3805	4.5	0
2709	3805	4.572490189546	0
2711	3805	0.1	0
2711	3805	0.2	0
2711	3805	0.3	0
2711	3805	0.4	0
2711	3805	0.5	0
2711	3805	0.6	0
2711	3805	0.7	0
2711	3805	0.8	0
2711	3805	0.9	0
2711	3805	1	0
2711	3805	1.1	0
2711	3805	1.2	0
2711	3805	1.3	0
2711	3805	1.4	0
2711	3805	1.5	0
2711	3805	1.6	0
2711	3805	1.7	0
2711	3805	1.8	0
2711	3805	1.9	0
2711	3805	2	0
2711	3805	2.1	0
2711	3805	2.2	0
2711	3805	2.3	0
2711	3805	2.4	0
2711	3805	2.5	0
2711	3805	2.6	0
2711	3805	2.7	0
2711	3805	2.8	0
2711	3805	2.9	0
2711	3805	3	0
2711	3805	3.1	0
2711	3805	3.2	0
2711	3805	3.3	0
2711	3805	3.4	0
2711	3805	3.5	0
2711	3805	3.6	0
2711	3805	3.7	0
2711	3805	3.8	0
2711	3805	3.9	0
2711	3805	4	0
2711	3805	4.1	0
2711	3805	4.2	0
2711	3805	4.3	0
2711	3805	4.4	0
2711	3805	4.5	0
2711	3805	4.572490189546	0
2782	3805	0.1	0
2782	3805	0.2	0
2782	3805	0.3	0
2782	3805	0.4	0
2782	3805	0.5	0
2782	3805	0.6	0
2782	3805	0.7	0
2782	3805	0.8	0
2782	3805	0.9	0
2782	3805	1	0
2782	3805	1.1	0
2782	3805	1.2	0
2782	3805	1.3	0
2782	3805	1.4	0
2782	3805	1.5	0
2782	3805	1.6	0
2782	3805	1.7	0
2782	3805	1.8	0
2782	3805	1.9	0
2782	3805	2	0
2782	3805	2.1	0
2782	3805	2.2	0
2782	3805	2.3	0
2782	3805	2.4	0
2782	3805	2.5	0
2782	3805	2.6	0
2782	3805	2.7	0
2782	3805	2.8	0
2782	3805	2.9	0
2782	3805	3	0
2782	3805	3.1	0
2782	3805	3.2	0
2782	3805	3.3	0
2782	3805	3.4	0
2782	3805	3.5	0
2782	3805	3.6	0
2782	3805	3.7	0
2782	3805	3.8	0
2782	3805	3.9	0
2782	3805	4	0
2782	3805	4.1	0
2782	3805	4.2	0
2782	3805	4.3	0
2782	3805	4.4	0
2782	3805	4.5	0
2782	3805	4.572490189546	0
2784	3805	0.1	0
2784	3805	0.2	0
2784	3805	0.3	0
2784	3805	0.4	0
2784	3805	0.5	0
2784	3805	0.6	0
2784	3805	0.7	0
2784	3805	0.8	0
2784	3805	0.9	0
2784	3805	1	0
2784	3805	1.1	0
2784	3805	1.2	0
2784	3805	1.3	0
2784	3805	1.4	0
2784	3805	1.5	0
2784	3805	1.6	0
2784	3805	1.7	0
2784	3805	1.8	0
2784	3805	1.9	0
2784	3805	2	0
2784	3805	2.1	0
2784	3805	2.2	0
2784	3805	2.3	0
2784	3805	2.4	0
2784	3805	2.5	0
2784	3805	2.6	0
2784	3805	2.7	0
2784	3805	2.8	0
2784	3805	2.9	0
2784	3805	3	0
2784	3805	3.1	0
2784	3805	3.2	0
2784	3805	3.3	0
2784	3805	3.4	0
2784	3805	3.5	0
2784	3805	3.6	0
2784	3805	3.7	0
2784	3805	3.8	0
2784	3805	3.9	0
2784	3805	4	0
2784	3805	4.1	0
2784	3805	4.2	0
2784	3805	4.3	0
2784	3805	4.4	0
2784	3805	4.5	0
2784	3805	4.572490189546	0
2855	3805	0.1	0
2855	3805	0.2	0
2855	3805	0.3	0
2855	3805	0.4	0
2855	3805	0.5	0
2855	3805	0.6	0
2855	3805	0.7	0
2855	3805	0.8	0
2855	3805	0.9	0
2855	3805	1	0
2855	3805	1.1	0
2855	3805	1.2	0
2855	3805	1.3	0
2855	3805	1.4	0
2855	3805	1.5	0
2855	3805	1.6	0
2855	3805	1.7	0
2855	3805	1.8	0
2855	3805	1.9	0
2855	3805	2	0
2855	3805	2.1	0
2855	3805	2.2	0
2855	3805	2.3	0
2855	3805	2.4	0
2855	3805	2.5	0
2855	3805	2.6	0
2855	3805	2.7	0
2855	3805	2.8	0
2855	3805	2.9	0
2855	3805	3	0
2855	3805	3.1	0
2855	3805	3.2	0
2855	3805	3.3	0
2855	3805	3.4	0
2855	3805	3.5	0
2855	3805	3.6	0
2855	3805	3.7	0
2855	3805	3.8	0
2855	3805	3.9	0
2855	3805	4	0
2855	3805	4.1	0
2855	3805	4.2	0
2855	3805	4.3	0
2855	3805	4.4	0
2855	3805	4.5	0
2855	3805	4.572490189546	0
2857	3805	0.1	0
2857	3805	0.2	0
2857	3805	0.3	0
2857	3805	0.4	0
2857	3805	0.5	0
2857	3805	0.6	0
2857	3805	0.7	0
2857	3805	0.8	0
2857	3805	0.9	0
2857	3805	1	0
2857	3805	1.1	0
2857	3805	1.2	0
2857	3805	1.3	0
2857	3805	1.4	0
2857	3805	1.5	0
2857	3805	1.6	0
2857	3805	1.7	0
2857	3805	1.8	0
2857	3805	1.9	0
2857	3805	2	0
2857	3805	2.1	0
2857	3805	2.2	0
2857	3805	2.3	0
2857	3805	2.4	0
2857	3805	2.5	0
2857	3805	2.6	0
2857	3805	2.7	0
2857	3805	2.8	0
2857	3805	2.9	0
2857	3805	3	0
2857	3805	3.1	0
2857	3805	3.2	0
2857	3805	3.3	0
2857	3805	3.4	0
2857	3805	3.5	0
2857	3805	3.6	0
2857	3805	3.7	0
2857	3805	3.8	0
2857	3805	3.9	0
2857	3805	4	0
2857	3805	4.1	0
2857	3805	4.2	0
2857	3805	4.3	0
2857	3805	4.4	0
2857	3805	4.5	0
2857	3805	4.572490189546	0
2928	3805	0.1	0
2928	3805	0.2	0
2928	3805	0.3	0
2928	3805	0.4	0
2928	3805	0.5	0
2928	3805	0.6	0
2928	3805	0.7	0
2928	3805	0.8	0
2928	3805	0.9	0
2928	3805	1	0
2928	3805	1.1	0
2928	3805	1.2	0
2928	3805	1.3	0
2928	3805	1.4	0
2928	3805	1.5	0
2928	3805	1.6	0
2928	3805	1.7	0
2928	3805	1.8	0
2928	3805	1.9	0
2928	3805	2	0
2928	3805	2.1	0
2928	3805	2.2	0
2928	3805	2.3	0
2928	3805	2.4	0
2928	3805	2.5	0
2928	3805	2.6	0
2928	3805	2.7	0
2928	3805	2.8	0
2928	3805	2.9	0
2928	3805	3	0
2928	3805	3.1	0
2928	3805	3.2	0
2928	3805	3.3	0
2928	3805	3.4	0
2928	3805	3.5	0
2928	3805	3.6	0
2928	3805	3.7	0
2928	3805	3.8	0
2928	3805	3.9	0
2928	3805	4	0
2928	3805	4.1	0
2928	3805	4.2	0
2928	3805	4.3	0
2928	3805	4.4	0
2928	3805	4.5	0
2928	3805	4.572490189546	0
2930	3805	0.1	0
2930	3805	0.2	0
2930	3805	0.3	0
2930	3805	0.4	0
2930	3805	0.5	0
2930	3805	0.6	0
2930	3805	0.7	0
2930	3805	0.8	0
2930	3805	0.9	0
2930	3805	1	0
2930	3805	1.1	0
2930	3805	1.2	0
2930	3805	1.3	0
2930	3805	1.4	0
2930	3805	1.5	0
2930	3805	1.6	0
2930	3805	1.7	0
2930	3805	1.8	0
2930	3805	1.9	0
2930	3805	2	0
2930	3805	2.1	0
2930	3805	2.2	0
2930	3805	2.3	0
2930	3805	2.4	0
2930	3805	2.5	0
2930	3805	2.6	0
2930	3805	2.7	0
2930	3805	2.8	0
2930	3805	2.9	0
2930	3805	3	0
2930	3805	3.1	0
2930	3805	3.2	0
2930	3805	3.3	0
2930	3805	3.4	0
2930	3805	3.5	0
2930	3805	3.6	0
2930	3805	3.7	0
2930	3805	3.8	0
2930	3805	3.9	0
2930	3805	4	0
2930	3805	4.1	0
2930	3805	4.2	0
2930	3805	4.3	0
2930	3805	4.4	0
2930	3805	4.5	0
2930	3805	4.572490189546	0
3001	3805	0.1	0
3001	3805	0.2	0
3001	3805	0.3	0
3001	3805	0.4	0
3001	3805	0.5	0
3001	3805	0.6	0
3001	3805	0.7	0
3001	3805	0.8	0
3001	3805	0.9	0
3001	3805	1	0
3001	3805	1.1	0
3001	3805	1.2	0
3001	3805	1.3	0
3001	3805	1.4	0
3001	3805	1.5	0
3001	3805	1.6	0
3001	3805	1.7	0
3001	3805	1.8	0
3001	3805	1.9	0
3001	3805	2	0
3001	3805	2.1	0
3001	3805	2.2	0
3001	3805	2.3	0
3001	3805	2.4	0
3001	3805	2.5	0
3001	3805	2.6	0
3001	3805	2.7	0
3001	3805	2.8	0
3001	3805	2.9	0
3001	3805	3	0
3001	3805	3.1	0
3001	3805	3.2	0
3001	3805	3.3	0
3001	3805	3.4	0
3001	3805	3.5	0
3001	3805	3.6	0
3001	3805	3.7	0
3001	3805	3.8	0
3001	3805	3.9	0
3001	3805	4	0
3001	3805	4.1	0
3001	3805	4.2	0
3001	3805	4.3	0
3001	3805	4.4	0
3001	3805	4.5	0
3001	3805	4.572490189546	0
3003	3805	0.1	0
3003	3805	0.2	0
3003	3805	0.3	0
3003	3805	0.4	0
3003	3805	0.5	0
3003	3805	0.6	0
3003	3805	0.7	0
3003	3805	0.8	0
3003	3805	0.9	0
3003	3805	1	0
3003	3805	1.1	0
3003	3805	1.2	0
3003	3805	1.3	0
3003	3805	1.4	0
3003	3805	1.5	0
3003	3805	1.6	0
3003	3805	1.7	0
3003	3805	1.8	0
3003	3805	1.9	0
3003	3805	2	0
3003	3805	2.1	0
3003	3805	2.2	0
3003	3805	2.3	0
3003	3805	2.4	0
3003	3805	2.5	0
3003	3805	2.6	0
3003	3805	2.7	0
3003	3805	2.8	0
3003	3805	2.9	0
3003	3805	3	0
3003	3805	3.1	0
3003	3805	3.2	0
3003	3805	3.3	0
3003	3805	3.4	0
3003	3805	3.5	0
3003	3805	3.6	0
3003	3805	3.7	0
3003	3805	3.8	0
3003	3805	3.9	0
3003	3805	4	0
3003	3805	4.1	0
3003	3805	4.2	0
3003	3805	4.3	0
3003	3805	4.4	0
3003	3805	4.5	0
3003	3805	4.572490189546	0
3074	3805	0.1	0
3074	3805	0.2	0
3074	3805	0.3	0
3074	3805	0.4	0
3074	3805	0.5	0
3074	3805	0.6	0
3074	3805	0.7	0
3074	3805	0.8	0
3074	3805	0.9	0
3074	3805	1	0
3074	3805	1.1	0
3074	3805	1.2	0
3074	3805	1.3	0
3074	3805	1.4	0
3074	3805	1.5	0
3074	3805	1.6	0
3074	3805	1.7	0
3074	3805	1.8	0
3074	3805	1.9	0
3074	3805	2	0
3074	3805	2.1	0
3074	3805	2.2	0
3074	3805	2.3	0
3074	3805	2.4	0
3074	3805	2.5	0
3074	3805	2.6	0
3074	3805	2.7	0
3074	3805	2.8	0
3074	3805	2.9	0
3074	3805	3	0
3074	3805	3.1	0
3074	3805	3.2	0
3074	3805	3.3	0
3074	3805	3.4	0
3074	3805	3.5	0
3074	3805	3.6	0
3074	3805	3.7	0
3074	3805	3.8	0
3074	3805	3.9	0
3074	3805	4	0
3074	3805	4.1	0
3074	3805	4.2	0
3074	3805	4.3	0
3074	3805	4.4	0
3074	3805	4.5	0
3074	3805	4.572490189546	0
3076	3805	0.1	0
3076	3805	0.2	0
3076	3805	0.3	0
3076	3805	0.4	0
3076	3805	0.5	0
3076	3805	0.6	0
3076	3805	0.7	0
3076	3805	0.8	0
3076	3805	0.9	0
3076	3805	1	0
3076	3805	1.1	0
3076	3805	1.2	0
3076	3805	1.3	0
3076	3805	1.4	0
3076	3805	1.5	0
3076	3805	1.6	0
3076	3805	1.7	0
3076	3805	1.8	0
3076	3805	1.9	0
3076	3805	2	0
3076	3805	2.1	0
3076	3805	2.2	0
3076	3805	2.3	0
3076	3805	2.4	0
3076	3805	2.5	0
3076	3805	2.6	0
3076	3805	2.7	0
3076	3805	2.8	0
3076	3805	2.9	0
3076	3805	3	0
3076	3805	3.1	0
3076	3805	3.2	0
3076	3805	3.3	0
3076	3805	3.4	0
3076	3805	3.5	0
3076	3805	3.6	0
3076	3805	3.7	0
3076	3805	3.8	0
3076	3805	3.9	0
3076	3805	4	0
3076	3805	4.1	0
3076	3805	4.2	0
3076	3805	4.3	0
3076	3805	4.4	0
3076	3805	4.5	0
3076	3805	4.572490189546	0
3147	3805	0.1	0
3147	3805	0.2	0
3147	3805	0.3	0
3147	3805	0.4	0
3147	3805	0.5	0
3147	3805	0.6	0
3147	3805	0.7	0
3147	3805	0.8	0
3147	3805	0.9	0
3147	3805	1	0
3147	3805	1.1	0
3147	3805	1.2	0
3147	3805	1.3	0
3147	3805	1.4	0
3147	3805	1.5	0
3147	3805	1.6	0
3147	3805	1.7	0
3147	3805	1.8	0
3147	3805	1.9	0
3147	3805	2	0
3147	3805	2.1	0
3147	3805	2.2	0
3147	3805	2.3	0
3147	3805	2.4	0
3147	3805	2.5	0
3147	3805	2.6	0
3147	3805	2.7	0
3147	3805	2.8	0
3147	3805	2.9	0
3147	3805	3	0
3147	3805	3.1	0
3147	3805	3.2	0
3147	3805	3.3	0
3147	3805	3.4	0
3147	3805	3.5	0
3147	3805	3.6	0
3147	3805	3.7	0
3147	3805	3.8	0
3147	3805	3.9	0
3147	3805	4	0
3147	3805	4.1	0
3147	3805	4.2	0
3147	3805	4.3	0
3147	3805	4.4	0
3147	3805	4.5	0
3147	3805	4.572490189546	0
3149	3805	0.1	0
3149	3805	0.2	0
3149	3805	0.3	0
3149	3805	0.4	0
3149	3805	0.5	0
3149	3805	0.6	0
3149	3805	0.7	0
3149	3805	0.8	0
3149	3805	0.9	0
3149	3805	1	0
3149	3805	1.1	0
3149	3805	1.2	0
3149	3805	1.3	0
3149	3805	1.4	0
3149	3805	1.5	0
3149	3805	1.6	0
3149	3805	1.7	0
3149	3805	1.8	0
3149	3805	1.9	0
3149	3805	2	0
3149	3805	2.1	0
3149	3805	2.2	0
3149	3805	2.3	0
3149	3805	2.4	0
3149	3805	2.5	0
3149	3805	2.6	0
3149	3805	2.7	0
3149	3805	2.8	0
3149	3805	2.9	0
3149	3805	3	0
3149	3805	3.1	0
3149	3805	3.2	0
3149	3805	3.3	0
3149	3805	3.4	0
3149	3805	3.5	0
3149	3805	3.6	0
3149	3805	3.7	0
3149	3805	3.8	0
3149	3805	3.9	0
3149	3805	4	0
3149	3805	4.1	0
3149	3805	4.2	0
3149	3805	4.3	0
3149	3805	4.4	0
3149	3805	4.5	0
3149	3805	4.572490189546	0
3220	3805	0.1	0
3220	3805	0.2	0
3220	3805	0.3	0
3220	3805	0.4	0
3220	3805	0.5	0
3220	3805	0.6	0
3220	3805	0.7	0
3220	3805	0.8	0
3220	3805	0.9	0
3220	3805	1	0
3220	3805	1.1	0
3220	3805	1.2	0
3220	3805	1.3	0
3220	3805	1.4	0
3220	3805	1.5	0
3220	3805	1.6	0
3220	3805	1.7	0
3220	3805	1.8	0
3220	3805	1.9	0
3220	3805	2	0
3220	3805	2.1	0
3220	3805	2.2	0
3220	3805	2.3	0
3220	3805	2.4	0
3220	3805	2.5	0
3220	3805	2.6	0
3220	3805	2.7	0
3220	3805	2.8	0
3220	3805	2.9	0
3220	3805	3	0
3220	3805	3.1	0
3220	3805	3.2	0
3220	3805	3.3	0
3220	3805	3.4	0
3220	3805	3.5	0
3220	3805	3.6	0
3220	3805	3.7	0
3220	3805	3.8	0
3220	3805	3.9	0
3220	3805	4	0
3220	3805	4.1	0
3220	3805	4.2	0
3220	3805	4.3	0
3220	3805	4.4	0
3220	3805	4.5	0
3220	3805	4.572490189546	0
3222	3805	0.1	0
3222	3805	0.2	0
3222	3805	0.3	0
3222	3805	0.4	0
3222	3805	0.5	0
3222	3805	0.6	0
3222	3805	0.7	0
3222	3805	0.8	0
3222	3805	0.9	0
3222	3805	1	0
3222	3805	1.1	0
3222	3805	1.2	0
3222	3805	1.3	0
3222	3805	1.4	0
3222	3805	1.5	0
3222	3805	1.6	0
3222	3805	1.7	0
3222	3805	1.8	0
3222	3805	1.9	0
3222	3805	2	0
3222	3805	2.1	0
3222	3805	2.2	0
3222	3805	2.3	0
3222	3805	2.4	0
3222	3805	2.5	0
3222	3805	2.6	0
3222	3805	2.7	0
3222	3805	2.8	0
3222	3805	2.9	0
3222	3805	3	0
3222	3805	3.1	0
3222	3805	3.2	0
3222	3805	3.3	0
3222	3805	3.4	0
3222	3805	3.5	0
3222	3805	3.6	0
3222	3805	3.7	0
3222	3805	3.8	0
3222	3805	3.9	0
3222	3805	4	0
3222	3805	4.1	0
3222	3805	4.2	0
3222	3805	4.3	0
3222	3805	4.4	0
3222	3805	4.5	0
3222	3805	4.572490189546	0
3293	3805	0.1	0
3293	3805	0.2	0
3293	3805	0.3	0
3293	3805	0.4	0
3293	3805	0.5	0
3293	3805	0.6	0
3293	3805	0.7	0
3293	3805	0.8	0
3293	3805	0.9	0
3293	3805	1	0
3293	3805	1.1	0
3293	3805	1.2	0
3293	3805	1.3	0
3293	3805	1.4	0
3293	3805	1.5	0
3293	3805	1.6	0
3293	3805	1.7	0
3293	3805	1.8	0
3293	3805	1.9	0
3293	3805	2	0
3293	3805	2.1	0
3293	3805	2.2	0
3293	3805	2.3	0
3293	3805	2.4	0
3293	3805	2.5	0
3293	3805	2.6	0
3293	3805	2.7	0
3293	3805	2.8	0
3293	3805	2.9	0
3293	3805	3	0
3293	3805	3.1	0
3293	3805	3.2	0
3293	3805	3.3	0
3293	3805	3.4	0
3293	3805	3.5	0
3293	3805	3.6	0
3293	3805	3.7	0
3293	3805	3.8	0
3293	3805	3.9	0
3293	3805	4	0
3293	3805	4.1	0
3293	3805	4.2	0
3293	3805	4.3	0
3293	3805	4.4	0
3293	3805	4.5	0
3293	3805	4.572490189546	0
3295	3805	0.1	0
3295	3805	0.2	0
3295	3805	0.3	0
3295	3805	0.4	0
3295	3805	0.5	0
3295	3805	0.6	0
3295	3805	0.7	0
3295	3805	0.8	0
3295	3805	0.9	0
3295	3805	1	0
3295	3805	1.1	0
3295	3805	1.2	0
3295	3805	1.3	0
3295	3805	1.4	0
3295	3805	1.5	0
3295	3805	1.6	0
3295	3805	1.7	0
3295	3805	1.8	0
3295	3805	1.9	0
3295	3805	2	0
3295	3805	2.1	0
3295	3805	2.2	0
3295	3805	2.3	0
3295	3805	2.4	0
3295	3805	2.5	0
3295	3805	2.6	0
3295	3805	2.7	0
3295	3805	2.8	0
3295	3805	2.9	0
3295	3805	3	0
3295	3805	3.1	0
3295	3805	3.2	0
3295	3805	3.3	0
3295	3805	3.4	0
3295	3805	3.5	0
3295	3805	3.6	0
3295	3805	3.7	0
3295	3805	3.8	0
3295	3805	3.9	0
3295	3805	4	0
3295	3805	4.1	0
3295	3805	4.2	0
3295	3805	4.3	0
3295	3805	4.4	0
3295	3805	4.5	0
3295	3805	4.572490189546	0
3366	3805	0.1	0
3366	3805	0.2	0
3366	3805	0.3	0
3366	3805	0.4	0
3366	3805	0.5	0
3366	3805	0.6	0
3366	3805	0.7	0
3366	3805	0.8	0
3366	3805	0.9	0
3366	3805	1	0
3366	3805	1.1	0
3366	3805	1.2	0
3366	3805	1.3	0
3366	3805	1.4	0
3366	3805	1.5	0
3366	3805	1.6	0
3366	3805	1.7	0
3366	3805	1.8	0
3366	3805	1.9	0
3366	3805	2	0
3366	3805	2.1	0
3366	3805	2.2	0
3366	3805	2.3	0
3366	3805	2.4	0
3366	3805	2.5	0
3366	3805	2.6	0
3366	3805	2.7	0
3366	3805	2.8	0
3366	3805	2.9	0
3366	3805	3	0
3366	3805	3.1	0
3366	3805	3.2	0
3366	3805	3.3	0
3366	3805	3.4	0
3366	3805	3.5	0
3366	3805	3.6	0
3366	3805	3.7	0
3366	3805	3.8	0
3366	3805	3.9	0
3366	3805	4	0
3366	3805	4.1	0
3366	3805	4.2	0
3366	3805	4.3	0
3366	3805	4.4	0
3366	3805	4.5	0
3366	3805	4.572490189546	0
3368	3805	0.1	0
3368	3805	0.2	0
3368	3805	0.3	0
3368	3805	0.4	0
3368	3805	0.5	0
3368	3805	0.6	0
3368	3805	0.7	0
3368	3805	0.8	0
3368	3805	0.9	0
3368	3805	1	0
3368	3805	1.1	0
3368	3805	1.2	0
3368	3805	1.3	0
3368	3805	1.4	0
3368	3805	1.5	0
3368	3805	1.6	0
3368	3805	1.7	0
3368	3805	1.8	0
3368	3805	1.9	0
3368	3805	2	0
3368	3805	2.1	0
3368	3805	2.2	0
3368	3805	2.3	0
3368	3805	2.4	0
3368	3805	2.5	0
3368	3805	2.6	0
3368	3805	2.7	0
3368	3805	2.8	0
3368	3805	2.9	0
3368	3805	3	0
3368	3805	3.1	0
3368	3805	3.2	0
3368	3805	3.3	0
3368	3805	3.4	0
3368	3805	3.5	0
3368	3805	3.6	0
3368	3805	3.7	0
3368	3805	3.8	0
3368	3805	3.9	0
3368	3805	4	0
3368	3805	4.1	0
3368	3805	4.2	0
3368	3805	4.3	0
3368	3805	4.4	0
3368	3805	4.5	0
3368	3805	4.572490189546	0
3439	3805	0.1	0
3439	3805	0.2	0
3439	3805	0.3	0
3439	3805	0.4	0
3439	3805	0.5	0
3439	3805	0.6	0
3439	3805	0.7	0
3439	3805	0.8	0
3439	3805	0.9	0
3439	3805	1	0
3439	3805	1.1	0
3439	3805	1.2	0
3439	3805	1.3	0
3439	3805	1.4	0
3439	3805	1.5	0
3439	3805	1.6	0
3439	3805	1.7	0
3439	3805	1.8	0
3439	3805	1.9	0
3439	3805	2	0
3439	3805	2.1	0
3439	3805	2.2	0
3439	3805	2.3	0
3439	3805	2.4	0
3439	3805	2.5	0
3439	3805	2.6	0
3439	3805	2.7	0
3439	3805	2.8	0
3439	3805	2.9	0
3439	3805	3	0
3439	3805	3.1	0
3439	3805	3.2	0
3439	3805	3.3	0
3439	3805	3.4	0
3439	3805	3.5	0
3439	3805	3.6	0
3439	3805	3.7	0
3439	3805	3.8	0
3439	3805	3.9	0
3439	3805	4	0
3439	3805	4.1	0
3439	3805	4.2	0
3439	3805	4.3	0
3439	3805	4.4	0
3439	3805	4.5	0
3439	3805	4.572490189546	0
3441	3805	0.1	0
3441	3805	0.2	0
3441	3805	0.3	0
3441	3805	0.4	0
3441	3805	0.5	0
3441	3805	0.6	0
3441	3805	0.7	0
3441	3805	0.8	0
3441	3805	0.9	0
3441	3805	1	0
3441	3805	1.1	0
3441	3805	1.2	0
3441	3805	1.3	0
3441	3805	1.4	0
3441	3805	1.5	0
3441	3805	1.6	0
3441	3805	1.7	0
3441	3805	1.8	0
3441	3805	1.9	0
3441	3805	2	0
3441	3805	2.1	0
3441	3805	2.2	0
3441	3805	2.3	0
3441	3805	2.4	0
3441	3805	2.5	0
3441	3805	2.6	0
3441	3805	2.7	0
3441	3805	2.8	0
3441	3805	2.9	0
3441	3805	3	0
3441	3805	3.1	0
3441	3805	3.2	0
3441	3805	3.3	0
3441	3805	3.4	0
3441	3805	3.5	0
3441	3805	3.6	0
3441	3805	3.7	0
3441	3805	3.8	0
3441	3805	3.9	0
3441	3805	4	0
3441	3805	4.1	0
3441	3805	4.2	0
3441	3805	4.3	0
3441	3805	4.4	0
3441	3805	4.5	0
3441	3805	4.572490189546	0
3512	3805	0.1	0
3512	3805	0.2	0
3512	3805	0.3	0
3512	3805	0.4	0
3512	3805	0.5	0
3512	3805	0.6	0
3512	3805	0.7	0
3512	3805	0.8	0
3512	3805	0.9	0
3512	3805	1	0
3512	3805	1.1	0
3512	3805	1.2	0
3512	3805	1.3	0
3512	3805	1.4	0
3512	3805	1.5	0
3512	3805	1.6	0
3512	3805	1.7	0
3512	3805	1.8	0
3512	3805	1.9	0
3512	3805	2	0
3512	3805	2.1	0
3512	3805	2.2	0
3512	3805	2.3	0
3512	3805	2.4	0
3512	3805	2.5	0
3512	3805	2.6	0
3512	3805	2.7	0
3512	3805	2.8	0
3512	3805	2.9	0
3512	3805	3	0
3512	3805	3.1	0
3512	3805	3.2	0
3512	3805	3.3	0
3512	3805	3.4	0
3512	3805	3.5	0
3512	3805	3.6	0
3512	3805	3.7	0
3512	3805	3.8	0
3512	3805	3.9	0
3512	3805	4	0
3512	3805	4.1	0
3512	3805	4.2	0
3512	3805	4.3	0
3512	3805	4.4	0
3512	3805	4.5	0
3512	3805	4.572490189546	0
3514	3805	0.1	0
3514	3805	0.2	0
3514	3805	0.3	0
3514	3805	0.4	0
3514	3805	0.5	0
3514	3805	0.6	0
3514	3805	0.7	0
3514	3805	0.8	0
3514	3805	0.9	0
3514	3805	1	0
3514	3805	1.1	0
3514	3805	1.2	0
3514	3805	1.3	0
3514	3805	1.4	0
3514	3805	1.5	0
3514	3805	1.6	0
3514	3805	1.7	0
3514	3805	1.8	0
3514	3805	1.9	0
3514	3805	2	0
3514	3805	2.1	0
3514	3805	2.2	0
3514	3805	2.3	0
3514	3805	2.4	0
3514	3805	2.5	0
3514	3805	2.6	0
3514	3805	2.7	0
3514	3805	2.8	0
3514	3805	2.9	0
3514	3805	3	0
3514	3805	3.1	0
3514	3805	3.2	0
3514	3805	3.3	0
3514	3805	3.4	0
3514	3805	3.5	0
3514	3805	3.6	0
3514	3805	3.7	0
3514	3805	3.8	0
3514	3805	3.9	0
3514	3805	4	0
3514	3805	4.1	0
3514	3805	4.2	0
3514	3805	4.3	0
3514	3805	4.4	0
3514	3805	4.5	0
3514	3805	4.572490189546	0
3585	3805	0.1	0
3585	3805	0.2	0
3585	3805	0.3	0
3585	3805	0.4	0
3585	3805	0.5	0
3585	3805	0.6	0
3585	3805	0.7	0
3585	3805	0.8	0
3585	3805	0.9	0
3585	3805	1	0
3585	3805	1.1	0
3585	3805	1.2	0
3585	3805	1.3	0
3585	3805	1.4	0
3585	3805	1.5	0
3585	3805	1.6	0
3585	3805	1.7	0
3585	3805	1.8	0
3585	3805	1.9	0
3585	3805	2	0
3585	3805	2.1	0
3585	3805	2.2	0
3585	3805	2.3	0
3585	3805	2.4	0
3585	3805	2.5	0
3585	3805	2.6	0
3585	3805	2.7	0
3585	3805	2.8	0
3585	3805	2.9	0
3585	3805	3	0
3585	3805	3.1	0
3585	3805	3.2	0
3585	3805	3.3	0
3585	3805	3.4	0
3585	3805	3.5	0
3585	3805	3.6	0
3585	3805	3.7	0
3585	3805	3.8	0
3585	3805	3.9	0
3585	3805	4	0
3585	3805	4.1	0
3585	3805	4.2	0
3585	3805	4.3	0
3585	3805	4.4	0
3585	3805	4.5	0
3585	3805	4.572490189546	0
3587	3805	0.1	0
3587	3805	0.2	0
3587	3805	0.3	0
3587	3805	0.4	0
3587	3805	0.5	0
3587	3805	0.6	0
3587	3805	0.7	0
3587	3805	0.8	0
3587	3805	0.9	0
3587	3805	1	0
3587	3805	1.1	0
3587	3805	1.2	0
3587	3805	1.3	0
3587	3805	1.4	0
3587	3805	1.5	0
3587	3805	1.6	0
3587	3805	1.7	0
3587	3805	1.8	0
3587	3805	1.9	0
3587	3805	2	0
3587	3805	2.1	0
3587	3805	2.2	0
3587	3805	2.3	0
3587	3805	2.4	0
3587	3805	2.5	0
3587	3805	2.6	0
3587	3805	2.7	0
3587	3805	2.8	0
3587	3805	2.9	0
3587	3805	3	0
3587	3805	3.1	0
3587	3805	3.2	0
3587	3805	3.3	0
3587	3805	3.4	0
3587	3805	3.5	0
3587	3805	3.6	0
3587	3805	3.7	0
3587	3805	3.8	0
3587	3805	3.9	0
3587	3805	4	0
3587	3805	4.1	0
3587	3805	4.2	0
3587	3805	4.3	0
3587	3805	4.4	0
3587	3805	4.5	0
3587	3805	4.572490189546	0

