file 1035798 1764274570                                         
version 3
run Scalability_Analysis-0-20251127-23:15:55-3373
attr configname Scalability_Analysis
attr datetime 20251127-23:15:55
attr datetimef 20251127-231555
attr experiment Scalability_Analysis
attr inifile omnetpp.ini
attr iterationvars ""
attr iterationvarsd ""
attr iterationvarsf ""
attr measurement ""
attr network hcc.HCCNetwork
attr processid 3373
attr repetition 0
attr replication #0
attr resultdir results
attr runnumber 0
attr seedset 0
config image-path ../../inet-4.5.4/images
config description "Vary node count (Larger area, default power for 600m)"
config *.numHosts 50
config *.host[*].mobility.typename MassMobility
config *.host[*].mobility.speed 5mps
config *.host[*].mobility.changeInterval 1s
config *.host[*].mobility.constraintAreaMaxX 600m
config *.host[*].mobility.constraintAreaMaxY 600m
config *.host[*].wlan[0].radio.transmitter.power 500mW
config network hcc.HCCNetwork
config sim-time-limit 10s
config **.loglevel detail
config **.result-recording-modes default
config *.configurator.config "xml(\"<config><interface hosts='*' address='10.0.0.x' netmask='255.255.255.0'/><multicast-group hosts='*' address='224.0.0.1'/></config>\")"
config *.host[*].numApps 1
config *.host[*].app[0].typename hcc.HCCApp
config *.host[*].app[0].localPort 5000
config *.host[*].app[0].destPort 5000
config *.host[*].app[0].destAddress "\"255.255.255.255\""
config *.host[*].app[0].beaconInterval 0.5s
config *.host[*].app[0].neighborValidityInterval 1s
config *.numHosts 5
config *.host[*].mobility.typename MassMobility
config *.host[*].mobility.changeInterval 1s
config *.host[*].mobility.speed 2mps
config *.host[*].mobility.constraintAreaMinX 0m
config *.host[*].mobility.constraintAreaMinY 0m
config *.host[*].mobility.constraintAreaMaxX 200m
config *.host[*].mobility.constraintAreaMaxY 200m
config *.host[*].mobility.constraintAreaMinZ 0m
config *.host[*].mobility.constraintAreaMaxZ 0m
config *.host[*].ipv4.routingTable.routingProtocol.typename ""
config *.host[*].wlan[0].typename Ieee80211Interface
config *.host[*].wlan[0].mac.typename Ieee80211Mac
config *.host[*].wlan[0].mac.useAck false
config *.radioMedium.typename Ieee80211ScalarRadioMedium
config *.radioMedium.pathLoss.typename FreeSpacePathLoss
config *.radioMedium.backgroundNoise.power -110dBm
config *.host[*].wlan[0].radio.typename Ieee80211ScalarRadio
config *.host[*].wlan[0].radio.transmitter.power 10mW
config *.host[*].wlan[0].radio.transmitter.bitrate 2Mbps
config *.host[*].wlan[0].radio.receiver.sensitivity -85dBm
config *.host[*].wlan[0].radio.energyConsumer.sleepCurrent 1uA
config *.host[*].wlan[0].radio.energyConsumer.receiveCurrent 20mA
config *.host[*].wlan[0].radio.energyConsumer.transmitCurrent 50mA

vector 0 HCCNetwork.host[0].lo[0].lo rcvdPkFromHl:vector(packetBytes) ETV
attr interpolationmode none
attr recordingmode vector(packetBytes)
attr source packetReceivedFromUpper
attr title "packets received from higher layer, packetBytes"
vector 1 HCCNetwork.host[0].lo[0].lo passedUpPk:vector(packetBytes) ETV
attr interpolationmode none
attr recordingmode vector(packetBytes)
attr source packetSentToUpper
attr title "packets passed to higher layer, packetBytes"
vector 2 HCCNetwork.host[0].lo[0] packetDropInterfaceDown:vector(packetBytes) ETV
attr interpolationmode none
attr recordingmode vector(packetBytes)
attr source packetDropReasonIsInterfaceDown(packetDropped)
attr title "packet drops: interface down, packetBytes"
vector 3 HCCNetwork.host[0].lo[0] packetDropNoCarrier:vector(packetBytes) ETV
attr interpolationmode none
attr recordingmode vector(packetBytes)
attr source packetDropReasonIsNoCarrier(packetDropped)
attr title "packet drops: no carrier, packetBytes"
vector 4 HCCNetwork.host[0].wlan[0].mac.dcf.channelAccess.pendingQueue queueLength:vector ETV
attr autoWarmupFilter false
attr interpolationmode sample-hold
attr recordingmode vector
attr source "warmup(atomic(constant0(packetPushEnded) + count(packetPushStarted) - count(packetPulled) - count(packetRemoved) - count(packetDropped)))"
attr title "queue length"
attr unit pk
vector 5 HCCNetwork.host[0].wlan[0].mac.dcf.channelAccess.pendingQueue queueBitLength:vector ETV
attr autoWarmupFilter false
attr interpolationmode sample-hold
attr recordingmode vector
attr source "warmup(atomic(constant0(packetPushEnded) + sum(packetLength(packetPushStarted)) - sum(packetLength(packetPulled)) - sum(packetLength(packetRemoved)) - sum(packetLength(packetDropped))))"
attr title "queue bit length"
attr unit b
vector 6 HCCNetwork.host[0].wlan[0].mac.dcf.channelAccess.pendingQueue queueingTime:vector ETV
attr interpolationmode none
attr recordingmode vector
attr source queueingTime(packetPulled)
attr title "queueing times"
attr unit s
vector 7 HCCNetwork.host[0].wlan[0].mac.dcf.channelAccess.pendingQueue incomingPacketLengths:vector ETV
attr interpolationmode none
attr recordingmode vector
attr source packetLength(packetPushStarted)
attr title "incoming packet lengths"
attr unit b
vector 8 HCCNetwork.host[0].wlan[0].mac.dcf.channelAccess.pendingQueue incomingDataRate:vector ETV
attr interpolationmode linear
attr recordingmode vector
attr source throughput(packetPushStarted)
attr title "incoming datarate"
attr unit bps
vector 9 HCCNetwork.host[0].wlan[0].mac.dcf.channelAccess.pendingQueue outgoingPacketLengths:vector ETV
attr interpolationmode none
attr recordingmode vector
attr source packetLength(packetPulled)
attr title "outgoing packet lengths"
attr unit b
vector 10 HCCNetwork.host[0].wlan[0].mac.dcf.channelAccess.pendingQueue outgoingDataRate:vector ETV
attr interpolationmode linear
attr recordingmode vector
attr source throughput(packetPulled)
attr title "outgoing datarate"
attr unit bps
vector 11 HCCNetwork.host[0].wlan[0].mac.dcf.channelAccess.pendingQueue droppedPacketLengthsQueueOverflow:vector ETV
attr interpolationmode none
attr recordingmode vector
attr source packetLength(packetDropReasonIsQueueOverflow(packetDropped))
attr title "dropped packet lengths: queue overflow"
attr unit b
vector 12 HCCNetwork.host[0].wlan[0].mac.dcf.channelAccess.pendingQueue flowQueueingTime:vector ETV
attr interpolationmode none
attr recordingmode vector
attr source queueingTime(demuxFlow(packetPulled))
attr title "flow queueing times"
attr unit s
vector 13 HCCNetwork.host[0].wlan[0].mac.dcf.channelAccess.pendingQueue flowIncomingDataRate:vector ETV
attr interpolationmode linear
attr recordingmode vector
attr source throughput(flowPacketLength(demuxFlow(packetPushStarted)))
attr title "flow specific incoming data rate"
attr unit bps
vector 14 HCCNetwork.host[0].wlan[0].mac.dcf.channelAccess.pendingQueue flowOutgoingDataRate:vector ETV
attr interpolationmode linear
attr recordingmode vector
attr source throughput(flowPacketLength(demuxFlow(packetPulled)))
attr title "flow specific outgoing data rate"
attr unit bps
vector 15 HCCNetwork.host[0].wlan[0].mac.dcf.channelAccess.inProgressFrames queueingTime:vector ETV
attr interpolationmode none
attr recordingmode vector
attr source queueingTime(packetDequeued)
attr title "queueing times"
vector 16 HCCNetwork.host[0].wlan[0].mac.dcf.channelAccess.inProgressFrames queueLength:vector ETV
attr autoWarmupFilter false
attr interpolationmode sample-hold
attr recordingmode vector
attr source "warmup(count(packetEnqueued) - count(packetDequeued))"
attr title "queue length"
vector 17 HCCNetwork.host[0].wlan[0].mac.dcf.channelAccess.contention backoffPeriodGenerated:vector ETV
attr interpolationmode none
attr recordingmode vector
attr title "backoff periods"
vector 18 HCCNetwork.host[0].wlan[0].mac.dcf.channelAccess.contention backoffActive:vector ETV
attr autoWarmupFilter false
attr interpolationmode sample-hold
attr recordingmode vector
attr source warmup(count(backoffStarted)-count(backoffStopped))
attr title "backoff active"
vector 19 HCCNetwork.host[0].wlan[0].mac.dcf.channelAccess.contention stateChanged:vector ETV
attr enum IDLE,DEFER,IFS_AND_BACKOFF
attr interpolationmode none
attr recordingmode vector
attr title "contention state changed"
attr type enum
vector 20 HCCNetwork.host[0].wlan[0].mac.dcf.recipientMacDataService packetDropDuplicateDetected:vector(packetBytes) ETV
attr interpolationmode none
attr recordingmode vector(packetBytes)
attr source packetDropReasonIsDuplicateDetected(packetDropped)
attr title "packet drops: duplicate detected, packetBytes"
vector 21 HCCNetwork.host[0].wlan[0].mac.dcf.recoveryProcedure contentionWindowChanged:vector ETV
attr interpolationmode sample-hold
attr recordingmode vector
attr title "contention window"
vector 22 HCCNetwork.host[0].wlan[0].mac.dcf packetSentToPeer:vector(packetBytes) ETV
attr interpolationmode none
attr recordingmode vector(packetBytes)
attr title "packets sent, packetBytes"
vector 23 HCCNetwork.host[0].wlan[0].mac.dcf packetSentToPeerUnicast:vector(packetBytes) ETV
attr interpolationmode none
attr recordingmode vector(packetBytes)
attr source ieee80211Unicast(packetSentToPeer)
attr title "packets sent: unicast, packetBytes"
vector 24 HCCNetwork.host[0].wlan[0].mac.dcf packetSentToPeerMulticast:vector(packetBytes) ETV
attr interpolationmode none
attr recordingmode vector(packetBytes)
attr source ieee80211Multicast(packetSentToPeer)
attr title "packets sent: multicast, packetBytes"
vector 25 HCCNetwork.host[0].wlan[0].mac.dcf packetSentToPeerBroadcast:vector(packetBytes) ETV
attr interpolationmode none
attr recordingmode vector(packetBytes)
attr source ieee80211Broadcast(packetSentToPeer)
attr title "packets sent: broadcast , packetBytes"
vector 26 HCCNetwork.host[0].wlan[0].mac.dcf packetSentToPeerWithRetry:vector(packetBytes) ETV
attr interpolationmode none
attr recordingmode vector(packetBytes)
attr source ieee80211Retry(packetSentToPeer)
attr title "packets sent: with retry, packetBytes"
vector 27 HCCNetwork.host[0].wlan[0].mac.dcf packetSentToPeerWithoutRetry:vector(packetBytes) ETV
attr interpolationmode none
attr recordingmode vector(packetBytes)
attr source ieee80211NotRetry(packetSentToPeer)
attr title "packets sent: without retry, packetBytes"
vector 28 HCCNetwork.host[0].wlan[0].mac.dcf packetReceivedFromPeer:vector(packetBytes) ETV
attr interpolationmode none
attr recordingmode vector(packetBytes)
attr title "packets received, packetBytes"
vector 29 HCCNetwork.host[0].wlan[0].mac.dcf packetReceivedFromPeerUnicast:vector(packetBytes) ETV
attr interpolationmode none
attr recordingmode vector(packetBytes)
attr source ieee80211Unicast(packetReceivedFromPeer)
attr title "packets received: unicast, packetBytes"
vector 30 HCCNetwork.host[0].wlan[0].mac.dcf packetReceivedFromPeerMulticast:vector(packetBytes) ETV
attr interpolationmode none
attr recordingmode vector(packetBytes)
attr source ieee80211Multicast(packetReceivedFromPeer)
attr title "packets received: multicast, packetBytes"
vector 31 HCCNetwork.host[0].wlan[0].mac.dcf packetReceivedFromPeerBroadcast:vector(packetBytes) ETV
attr interpolationmode none
attr recordingmode vector(packetBytes)
attr source ieee80211Broadcast(packetReceivedFromPeer)
attr title "packets received: broadcast, packetBytes"
vector 32 HCCNetwork.host[0].wlan[0].mac.dcf packetReceivedFromPeerWithRetry:vector(packetBytes) ETV
attr interpolationmode none
attr recordingmode vector(packetBytes)
attr source ieee80211Retry(packetReceivedFromPeer)
attr title "packets received: with retry, packetBytes"
vector 33 HCCNetwork.host[0].wlan[0].mac.dcf packetReceivedFromPeerWithoutRetry:vector(packetBytes) ETV
attr interpolationmode none
attr recordingmode vector(packetBytes)
attr source ieee80211NotRetry(packetReceivedFromPeer)
attr title "packets received: without retry, packetBytes"
vector 34 HCCNetwork.host[0].wlan[0].mac.dcf packetDrop:vector(packetBytes) ETV
attr interpolationmode none
attr recordingmode vector(packetBytes)
attr source packetDropped
attr title "packet drops, packetBytes"
vector 35 HCCNetwork.host[0].wlan[0].mac.dcf packetDropNotAddressedToUs:vector(packetBytes) ETV
attr interpolationmode none
attr recordingmode vector(packetBytes)
attr source packetDropReasonIsNotAddressedToUs(packetDropped)
attr title "packet drops: not addressed to us, packetBytes"
vector 36 HCCNetwork.host[0].wlan[0].mac.dcf packetDropQueueOverflow:vector(packetBytes) ETV
attr interpolationmode none
attr recordingmode vector(packetBytes)
attr source packetDropReasonIsQueueOverflow(packetDropped)
attr title "packet drops: queue overflow, packetBytes"
vector 37 HCCNetwork.host[0].wlan[0].mac.dcf packetDropRetryLimitReached:vector(packetBytes) ETV
attr interpolationmode none
attr recordingmode vector(packetBytes)
attr source packetDropReasonIsRetryLimitReached(packetDropped)
attr title "packet drops: retry limit reached, packetBytes"
vector 38 HCCNetwork.host[0].wlan[0].mac.dcf frameSequenceActive:vector ETV
attr autoWarmupFilter false
attr interpolationmode sample-hold
attr recordingmode vector
attr source warmup(count(frameSequenceStarted)-count(frameSequenceFinished))
attr title "frame sequence active"
vector 39 HCCNetwork.host[0].wlan[0].mac.dcf datarateSelected:vector ETV
attr interpolationmode none
attr recordingmode vector
attr title "datarates selected"
vector 40 HCCNetwork.host[0].wlan[0].mac.rx nav:vector ETV
attr interpolationmode linear
attr recordingmode vector
attr source navChanged
attr title "network allocation vector"
vector 41 HCCNetwork.host[0].wlan[0].mac packetSentToUpper:vector(packetBytes) ETV
attr interpolationmode none
attr recordingmode vector(packetBytes)
attr title "packets sent to upper layer, packetBytes"
vector 42 HCCNetwork.host[0].wlan[0].mac packetSentToLower:vector(packetBytes) ETV
attr interpolationmode none
attr recordingmode vector(packetBytes)
attr title "packets sent to lower layer, packetBytes"
vector 43 HCCNetwork.host[0].wlan[0].mac packetReceivedFromUpper:vector(packetBytes) ETV
attr interpolationmode none
attr recordingmode vector(packetBytes)
attr title "packets received from upper layer, packetBytes"
vector 44 HCCNetwork.host[0].wlan[0].mac packetReceivedFromLower:vector(packetBytes) ETV
attr interpolationmode none
attr recordingmode vector(packetBytes)
attr title "packets received from lower layer, packetBytes"
vector 45 HCCNetwork.host[0].wlan[0].mac packetDrop:vector(packetBytes) ETV
attr interpolationmode none
attr recordingmode vector(packetBytes)
attr source packetDropped
attr title "packet drops, packetBytes"
vector 46 HCCNetwork.host[0].wlan[0].mac packetDropIncorrectlyReceived:vector(packetBytes) ETV
attr interpolationmode none
attr recordingmode vector(packetBytes)
attr source packetDropReasonIsIncorrectlyReceived(packetDropped)
attr title "packet drops: incorrectly received, packetBytes"
vector 47 HCCNetwork.host[0].wlan[0].mac packetDropNotAddressedToUs:vector(packetBytes) ETV
attr interpolationmode none
attr recordingmode vector(packetBytes)
attr source packetDropReasonIsNotAddressedToUs(packetDropped)
attr title "packet drops: not addressed to us, packetBytes"
vector 48 HCCNetwork.host[0].wlan[0].mac packetDropQueueOverflow:vector(packetBytes) ETV
attr interpolationmode none
attr recordingmode vector(packetBytes)
attr source packetDropReasonIsQueueOverflow(packetDropped)
attr title "packet drops: queue overflow, packetBytes"
vector 49 HCCNetwork.host[0].wlan[0].mac packetDropRetryLimitReached:vector(packetBytes) ETV
attr interpolationmode none
attr recordingmode vector(packetBytes)
attr source packetDropReasonIsRetryLimitReached(packetDropped)
attr title "packet drops: retry limit reached, packetBytes"
vector 50 HCCNetwork.host[0].wlan[0].mac packetDropDuplicateDetected:vector(packetBytes) ETV
attr interpolationmode none
attr recordingmode vector(packetBytes)
attr source packetDropReasonIsDuplicateDetected(packetDropped)
attr title "packet drops: duplicate detected, packetBytes"
vector 51 HCCNetwork.host[0].wlan[0].mac packetDropOther:vector(packetBytes) ETV
attr interpolationmode none
attr recordingmode vector(packetBytes)
attr source packetDropReasonIsOther(packetDropped)
attr title "packet drops: other, packetBytes"
vector 52 HCCNetwork.host[0].wlan[0].radio radioMode:vector ETV
attr interpolationmode sample-hold
attr recordingmode vector
attr source radioModeChanged
attr title "Radio mode"
vector 53 HCCNetwork.host[0].wlan[0].radio receptionState:vector ETV
attr interpolationmode sample-hold
attr recordingmode vector
attr source receptionStateChanged
attr title "Radio reception state"
vector 54 HCCNetwork.host[0].wlan[0].radio transmissionState:vector ETV
attr interpolationmode sample-hold
attr recordingmode vector
attr source transmissionStateChanged
attr title "Radio transmission state"
vector 55 HCCNetwork.host[0].wlan[0].radio radioChannel:vector ETV
attr interpolationmode sample-hold
attr recordingmode vector
attr source radioChannelChanged
attr title "Radio channel"
vector 56 HCCNetwork.host[0].wlan[0] packetDropInterfaceDown:vector(packetBytes) ETV
attr interpolationmode none
attr recordingmode vector(packetBytes)
attr source packetDropReasonIsInterfaceDown(packetDropped)
attr title "packet drops: interface down, packetBytes"
vector 57 HCCNetwork.host[0].wlan[0] packetDropNoCarrier:vector(packetBytes) ETV
attr interpolationmode none
attr recordingmode vector(packetBytes)
attr source packetDropReasonIsNoCarrier(packetDropped)
attr title "packet drops: no carrier, packetBytes"
vector 58 HCCNetwork.host[0].ipv4.ip packetDropAddressResolutionFailed:vector(packetBytes) ETV
attr interpolationmode none
attr recordingmode vector(packetBytes)
attr source packetDropReasonIsAddressResolutionFailed(packetDropped)
attr title "packet drop: address resolution failed, packetBytes"
vector 59 HCCNetwork.host[0].ipv4.ip packetDropHopLimitReached:vector(packetBytes) ETV
attr interpolationmode none
attr recordingmode vector(packetBytes)
attr source packetDropReasonIsHopLimitReached(packetDropped)
attr title "packet drop: hop limit reached, packetBytes"
vector 60 HCCNetwork.host[0].ipv4.ip packetDropForwardingDisabled:vector(packetBytes) ETV
attr interpolationmode none
attr recordingmode vector(packetBytes)
attr source packetDropReasonIsForwardingDisabled(packetDropped)
attr title "packet drop: forwarding disabled, packetBytes"
vector 61 HCCNetwork.host[0].ipv4.ip packetDropNoInterfaceFound:vector(packetBytes) ETV
attr interpolationmode none
attr recordingmode vector(packetBytes)
attr source packetDropReasonIsNoInterfaceFound(packetDropped)
attr title "packet drop: no interface found, packetBytes"
vector 62 HCCNetwork.host[0].ipv4.ip packetDropNoRouteFound:vector(packetBytes) ETV
attr interpolationmode none
attr recordingmode vector(packetBytes)
attr source packetDropReasonIsNoRouteFound(packetDropped)
attr title "packet drop: no route found, packetBytes"
vector 63 HCCNetwork.host[0].ipv4.ip packetDropUndefined:vector(packetBytes) ETV
attr interpolationmode none
attr recordingmode vector(packetBytes)
attr source packetDropReasonIsUndefined(packetDropped)
attr title "packet drop: undefined, packetBytes"
vector 64 HCCNetwork.host[0].ipv4.arp arpRequestSent:vector(packetBytes) ETV
attr recordingmode vector(packetBytes)
attr source arpRequestSent
attr title "ARP request sent, packetBytes"
vector 65 HCCNetwork.host[0].ipv4.arp arpReplySent:vector(packetBytes) ETV
attr recordingmode vector(packetBytes)
attr source arpReplySent
attr title "ARP replies sent, packetBytes"
vector 66 HCCNetwork.host[0].udp packetSent:vector(packetBytes) ETV
attr interpolationmode none
attr recordingmode vector(packetBytes)
attr source packetSent
attr title "packets sent, packetBytes"
vector 67 HCCNetwork.host[0].udp packetReceived:vector(packetBytes) ETV
attr interpolationmode none
attr recordingmode vector(packetBytes)
attr source packetReceived
attr title "packets received, packetBytes"
vector 68 HCCNetwork.host[0].udp passedUpPk:vector(count) ETV
attr interpolationmode none
attr recordingmode vector(count)
attr source packetSentToUpper
attr title "packets passed up, count"
vector 69 HCCNetwork.host[0].udp droppedPkWrongPort:vector(count) ETV
attr interpolationmode none
attr recordingmode vector(count)
attr source packetDropReasonIsNoPortFound(packetDropped)
attr title "packets dropped (wrong port), count"
vector 70 HCCNetwork.host[0].udp droppedPkBadChecksum:vector(count) ETV
attr interpolationmode none
attr recordingmode vector(count)
attr source packetDropReasonIsIncorrectlyReceived(packetDropped)
attr title "packets dropped (checksum error), count"
vector 71 HCCNetwork.host[0].app[0] clusterRole:vector ETV
attr recordingmode vector
attr source clusterRole
attr title "Cluster Role"
vector 72 HCCNetwork.host[0].app[0] nodeDegree:vector ETV
attr recordingmode vector
attr source nodeDegree
attr title "Node Degree"
vector 73 HCCNetwork.host[1].lo[0].lo rcvdPkFromHl:vector(packetBytes) ETV
attr interpolationmode none
attr recordingmode vector(packetBytes)
attr source packetReceivedFromUpper
attr title "packets received from higher layer, packetBytes"
vector 74 HCCNetwork.host[1].lo[0].lo passedUpPk:vector(packetBytes) ETV
attr interpolationmode none
attr recordingmode vector(packetBytes)
attr source packetSentToUpper
attr title "packets passed to higher layer, packetBytes"
vector 75 HCCNetwork.host[1].lo[0] packetDropInterfaceDown:vector(packetBytes) ETV
attr interpolationmode none
attr recordingmode vector(packetBytes)
attr source packetDropReasonIsInterfaceDown(packetDropped)
attr title "packet drops: interface down, packetBytes"
vector 76 HCCNetwork.host[1].lo[0] packetDropNoCarrier:vector(packetBytes) ETV
attr interpolationmode none
attr recordingmode vector(packetBytes)
attr source packetDropReasonIsNoCarrier(packetDropped)
attr title "packet drops: no carrier, packetBytes"
vector 77 HCCNetwork.host[1].wlan[0].mac.dcf.channelAccess.pendingQueue queueLength:vector ETV
attr autoWarmupFilter false
attr interpolationmode sample-hold
attr recordingmode vector
attr source "warmup(atomic(constant0(packetPushEnded) + count(packetPushStarted) - count(packetPulled) - count(packetRemoved) - count(packetDropped)))"
attr title "queue length"
attr unit pk
vector 78 HCCNetwork.host[1].wlan[0].mac.dcf.channelAccess.pendingQueue queueBitLength:vector ETV
attr autoWarmupFilter false
attr interpolationmode sample-hold
attr recordingmode vector
attr source "warmup(atomic(constant0(packetPushEnded) + sum(packetLength(packetPushStarted)) - sum(packetLength(packetPulled)) - sum(packetLength(packetRemoved)) - sum(packetLength(packetDropped))))"
attr title "queue bit length"
attr unit b
vector 79 HCCNetwork.host[1].wlan[0].mac.dcf.channelAccess.pendingQueue queueingTime:vector ETV
attr interpolationmode none
attr recordingmode vector
attr source queueingTime(packetPulled)
attr title "queueing times"
attr unit s
vector 80 HCCNetwork.host[1].wlan[0].mac.dcf.channelAccess.pendingQueue incomingPacketLengths:vector ETV
attr interpolationmode none
attr recordingmode vector
attr source packetLength(packetPushStarted)
attr title "incoming packet lengths"
attr unit b
vector 81 HCCNetwork.host[1].wlan[0].mac.dcf.channelAccess.pendingQueue incomingDataRate:vector ETV
attr interpolationmode linear
attr recordingmode vector
attr source throughput(packetPushStarted)
attr title "incoming datarate"
attr unit bps
vector 82 HCCNetwork.host[1].wlan[0].mac.dcf.channelAccess.pendingQueue outgoingPacketLengths:vector ETV
attr interpolationmode none
attr recordingmode vector
attr source packetLength(packetPulled)
attr title "outgoing packet lengths"
attr unit b
vector 83 HCCNetwork.host[1].wlan[0].mac.dcf.channelAccess.pendingQueue outgoingDataRate:vector ETV
attr interpolationmode linear
attr recordingmode vector
attr source throughput(packetPulled)
attr title "outgoing datarate"
attr unit bps
vector 84 HCCNetwork.host[1].wlan[0].mac.dcf.channelAccess.pendingQueue droppedPacketLengthsQueueOverflow:vector ETV
attr interpolationmode none
attr recordingmode vector
attr source packetLength(packetDropReasonIsQueueOverflow(packetDropped))
attr title "dropped packet lengths: queue overflow"
attr unit b
vector 85 HCCNetwork.host[1].wlan[0].mac.dcf.channelAccess.pendingQueue flowQueueingTime:vector ETV
attr interpolationmode none
attr recordingmode vector
attr source queueingTime(demuxFlow(packetPulled))
attr title "flow queueing times"
attr unit s
vector 86 HCCNetwork.host[1].wlan[0].mac.dcf.channelAccess.pendingQueue flowIncomingDataRate:vector ETV
attr interpolationmode linear
attr recordingmode vector
attr source throughput(flowPacketLength(demuxFlow(packetPushStarted)))
attr title "flow specific incoming data rate"
attr unit bps
vector 87 HCCNetwork.host[1].wlan[0].mac.dcf.channelAccess.pendingQueue flowOutgoingDataRate:vector ETV
attr interpolationmode linear
attr recordingmode vector
attr source throughput(flowPacketLength(demuxFlow(packetPulled)))
attr title "flow specific outgoing data rate"
attr unit bps
vector 88 HCCNetwork.host[1].wlan[0].mac.dcf.channelAccess.inProgressFrames queueingTime:vector ETV
attr interpolationmode none
attr recordingmode vector
attr source queueingTime(packetDequeued)
attr title "queueing times"
vector 89 HCCNetwork.host[1].wlan[0].mac.dcf.channelAccess.inProgressFrames queueLength:vector ETV
attr autoWarmupFilter false
attr interpolationmode sample-hold
attr recordingmode vector
attr source "warmup(count(packetEnqueued) - count(packetDequeued))"
attr title "queue length"
vector 90 HCCNetwork.host[1].wlan[0].mac.dcf.channelAccess.contention backoffPeriodGenerated:vector ETV
attr interpolationmode none
attr recordingmode vector
attr title "backoff periods"
vector 91 HCCNetwork.host[1].wlan[0].mac.dcf.channelAccess.contention backoffActive:vector ETV
attr autoWarmupFilter false
attr interpolationmode sample-hold
attr recordingmode vector
attr source warmup(count(backoffStarted)-count(backoffStopped))
attr title "backoff active"
vector 92 HCCNetwork.host[1].wlan[0].mac.dcf.channelAccess.contention stateChanged:vector ETV
attr enum IDLE,DEFER,IFS_AND_BACKOFF
attr interpolationmode none
attr recordingmode vector
attr title "contention state changed"
attr type enum
vector 93 HCCNetwork.host[1].wlan[0].mac.dcf.recipientMacDataService packetDropDuplicateDetected:vector(packetBytes) ETV
attr interpolationmode none
attr recordingmode vector(packetBytes)
attr source packetDropReasonIsDuplicateDetected(packetDropped)
attr title "packet drops: duplicate detected, packetBytes"
vector 94 HCCNetwork.host[1].wlan[0].mac.dcf.recoveryProcedure contentionWindowChanged:vector ETV
attr interpolationmode sample-hold
attr recordingmode vector
attr title "contention window"
vector 95 HCCNetwork.host[1].wlan[0].mac.dcf packetSentToPeer:vector(packetBytes) ETV
attr interpolationmode none
attr recordingmode vector(packetBytes)
attr title "packets sent, packetBytes"
vector 96 HCCNetwork.host[1].wlan[0].mac.dcf packetSentToPeerUnicast:vector(packetBytes) ETV
attr interpolationmode none
attr recordingmode vector(packetBytes)
attr source ieee80211Unicast(packetSentToPeer)
attr title "packets sent: unicast, packetBytes"
vector 97 HCCNetwork.host[1].wlan[0].mac.dcf packetSentToPeerMulticast:vector(packetBytes) ETV
attr interpolationmode none
attr recordingmode vector(packetBytes)
attr source ieee80211Multicast(packetSentToPeer)
attr title "packets sent: multicast, packetBytes"
vector 98 HCCNetwork.host[1].wlan[0].mac.dcf packetSentToPeerBroadcast:vector(packetBytes) ETV
attr interpolationmode none
attr recordingmode vector(packetBytes)
attr source ieee80211Broadcast(packetSentToPeer)
attr title "packets sent: broadcast , packetBytes"
vector 99 HCCNetwork.host[1].wlan[0].mac.dcf packetSentToPeerWithRetry:vector(packetBytes) ETV
attr interpolationmode none
attr recordingmode vector(packetBytes)
attr source ieee80211Retry(packetSentToPeer)
attr title "packets sent: with retry, packetBytes"
vector 100 HCCNetwork.host[1].wlan[0].mac.dcf packetSentToPeerWithoutRetry:vector(packetBytes) ETV
attr interpolationmode none
attr recordingmode vector(packetBytes)
attr source ieee80211NotRetry(packetSentToPeer)
attr title "packets sent: without retry, packetBytes"
vector 101 HCCNetwork.host[1].wlan[0].mac.dcf packetReceivedFromPeer:vector(packetBytes) ETV
attr interpolationmode none
attr recordingmode vector(packetBytes)
attr title "packets received, packetBytes"
vector 102 HCCNetwork.host[1].wlan[0].mac.dcf packetReceivedFromPeerUnicast:vector(packetBytes) ETV
attr interpolationmode none
attr recordingmode vector(packetBytes)
attr source ieee80211Unicast(packetReceivedFromPeer)
attr title "packets received: unicast, packetBytes"
vector 103 HCCNetwork.host[1].wlan[0].mac.dcf packetReceivedFromPeerMulticast:vector(packetBytes) ETV
attr interpolationmode none
attr recordingmode vector(packetBytes)
attr source ieee80211Multicast(packetReceivedFromPeer)
attr title "packets received: multicast, packetBytes"
vector 104 HCCNetwork.host[1].wlan[0].mac.dcf packetReceivedFromPeerBroadcast:vector(packetBytes) ETV
attr interpolationmode none
attr recordingmode vector(packetBytes)
attr source ieee80211Broadcast(packetReceivedFromPeer)
attr title "packets received: broadcast, packetBytes"
vector 105 HCCNetwork.host[1].wlan[0].mac.dcf packetReceivedFromPeerWithRetry:vector(packetBytes) ETV
attr interpolationmode none
attr recordingmode vector(packetBytes)
attr source ieee80211Retry(packetReceivedFromPeer)
attr title "packets received: with retry, packetBytes"
vector 106 HCCNetwork.host[1].wlan[0].mac.dcf packetReceivedFromPeerWithoutRetry:vector(packetBytes) ETV
attr interpolationmode none
attr recordingmode vector(packetBytes)
attr source ieee80211NotRetry(packetReceivedFromPeer)
attr title "packets received: without retry, packetBytes"
vector 107 HCCNetwork.host[1].wlan[0].mac.dcf packetDrop:vector(packetBytes) ETV
attr interpolationmode none
attr recordingmode vector(packetBytes)
attr source packetDropped
attr title "packet drops, packetBytes"
vector 108 HCCNetwork.host[1].wlan[0].mac.dcf packetDropNotAddressedToUs:vector(packetBytes) ETV
attr interpolationmode none
attr recordingmode vector(packetBytes)
attr source packetDropReasonIsNotAddressedToUs(packetDropped)
attr title "packet drops: not addressed to us, packetBytes"
vector 109 HCCNetwork.host[1].wlan[0].mac.dcf packetDropQueueOverflow:vector(packetBytes) ETV
attr interpolationmode none
attr recordingmode vector(packetBytes)
attr source packetDropReasonIsQueueOverflow(packetDropped)
attr title "packet drops: queue overflow, packetBytes"
vector 110 HCCNetwork.host[1].wlan[0].mac.dcf packetDropRetryLimitReached:vector(packetBytes) ETV
attr interpolationmode none
attr recordingmode vector(packetBytes)
attr source packetDropReasonIsRetryLimitReached(packetDropped)
attr title "packet drops: retry limit reached, packetBytes"
vector 111 HCCNetwork.host[1].wlan[0].mac.dcf frameSequenceActive:vector ETV
attr autoWarmupFilter false
attr interpolationmode sample-hold
attr recordingmode vector
attr source warmup(count(frameSequenceStarted)-count(frameSequenceFinished))
attr title "frame sequence active"
vector 112 HCCNetwork.host[1].wlan[0].mac.dcf datarateSelected:vector ETV
attr interpolationmode none
attr recordingmode vector
attr title "datarates selected"
vector 113 HCCNetwork.host[1].wlan[0].mac.rx nav:vector ETV
attr interpolationmode linear
attr recordingmode vector
attr source navChanged
attr title "network allocation vector"
vector 114 HCCNetwork.host[1].wlan[0].mac packetSentToUpper:vector(packetBytes) ETV
attr interpolationmode none
attr recordingmode vector(packetBytes)
attr title "packets sent to upper layer, packetBytes"
vector 115 HCCNetwork.host[1].wlan[0].mac packetSentToLower:vector(packetBytes) ETV
attr interpolationmode none
attr recordingmode vector(packetBytes)
attr title "packets sent to lower layer, packetBytes"
vector 116 HCCNetwork.host[1].wlan[0].mac packetReceivedFromUpper:vector(packetBytes) ETV
attr interpolationmode none
attr recordingmode vector(packetBytes)
attr title "packets received from upper layer, packetBytes"
vector 117 HCCNetwork.host[1].wlan[0].mac packetReceivedFromLower:vector(packetBytes) ETV
attr interpolationmode none
attr recordingmode vector(packetBytes)
attr title "packets received from lower layer, packetBytes"
vector 118 HCCNetwork.host[1].wlan[0].mac packetDrop:vector(packetBytes) ETV
attr interpolationmode none
attr recordingmode vector(packetBytes)
attr source packetDropped
attr title "packet drops, packetBytes"
vector 119 HCCNetwork.host[1].wlan[0].mac packetDropIncorrectlyReceived:vector(packetBytes) ETV
attr interpolationmode none
attr recordingmode vector(packetBytes)
attr source packetDropReasonIsIncorrectlyReceived(packetDropped)
attr title "packet drops: incorrectly received, packetBytes"
vector 120 HCCNetwork.host[1].wlan[0].mac packetDropNotAddressedToUs:vector(packetBytes) ETV
attr interpolationmode none
attr recordingmode vector(packetBytes)
attr source packetDropReasonIsNotAddressedToUs(packetDropped)
attr title "packet drops: not addressed to us, packetBytes"
vector 121 HCCNetwork.host[1].wlan[0].mac packetDropQueueOverflow:vector(packetBytes) ETV
attr interpolationmode none
attr recordingmode vector(packetBytes)
attr source packetDropReasonIsQueueOverflow(packetDropped)
attr title "packet drops: queue overflow, packetBytes"
vector 122 HCCNetwork.host[1].wlan[0].mac packetDropRetryLimitReached:vector(packetBytes) ETV
attr interpolationmode none
attr recordingmode vector(packetBytes)
attr source packetDropReasonIsRetryLimitReached(packetDropped)
attr title "packet drops: retry limit reached, packetBytes"
vector 123 HCCNetwork.host[1].wlan[0].mac packetDropDuplicateDetected:vector(packetBytes) ETV
attr interpolationmode none
attr recordingmode vector(packetBytes)
attr source packetDropReasonIsDuplicateDetected(packetDropped)
attr title "packet drops: duplicate detected, packetBytes"
vector 124 HCCNetwork.host[1].wlan[0].mac packetDropOther:vector(packetBytes) ETV
attr interpolationmode none
attr recordingmode vector(packetBytes)
attr source packetDropReasonIsOther(packetDropped)
attr title "packet drops: other, packetBytes"
vector 125 HCCNetwork.host[1].wlan[0].radio radioMode:vector ETV
attr interpolationmode sample-hold
attr recordingmode vector
attr source radioModeChanged
attr title "Radio mode"
vector 126 HCCNetwork.host[1].wlan[0].radio receptionState:vector ETV
attr interpolationmode sample-hold
attr recordingmode vector
attr source receptionStateChanged
attr title "Radio reception state"
vector 127 HCCNetwork.host[1].wlan[0].radio transmissionState:vector ETV
attr interpolationmode sample-hold
attr recordingmode vector
attr source transmissionStateChanged
attr title "Radio transmission state"
vector 128 HCCNetwork.host[1].wlan[0].radio radioChannel:vector ETV
attr interpolationmode sample-hold
attr recordingmode vector
attr source radioChannelChanged
attr title "Radio channel"
vector 129 HCCNetwork.host[1].wlan[0] packetDropInterfaceDown:vector(packetBytes) ETV
attr interpolationmode none
attr recordingmode vector(packetBytes)
attr source packetDropReasonIsInterfaceDown(packetDropped)
attr title "packet drops: interface down, packetBytes"
vector 130 HCCNetwork.host[1].wlan[0] packetDropNoCarrier:vector(packetBytes) ETV
attr interpolationmode none
attr recordingmode vector(packetBytes)
attr source packetDropReasonIsNoCarrier(packetDropped)
attr title "packet drops: no carrier, packetBytes"
vector 131 HCCNetwork.host[1].ipv4.ip packetDropAddressResolutionFailed:vector(packetBytes) ETV
attr interpolationmode none
attr recordingmode vector(packetBytes)
attr source packetDropReasonIsAddressResolutionFailed(packetDropped)
attr title "packet drop: address resolution failed, packetBytes"
vector 132 HCCNetwork.host[1].ipv4.ip packetDropHopLimitReached:vector(packetBytes) ETV
attr interpolationmode none
attr recordingmode vector(packetBytes)
attr source packetDropReasonIsHopLimitReached(packetDropped)
attr title "packet drop: hop limit reached, packetBytes"
vector 133 HCCNetwork.host[1].ipv4.ip packetDropForwardingDisabled:vector(packetBytes) ETV
attr interpolationmode none
attr recordingmode vector(packetBytes)
attr source packetDropReasonIsForwardingDisabled(packetDropped)
attr title "packet drop: forwarding disabled, packetBytes"
vector 134 HCCNetwork.host[1].ipv4.ip packetDropNoInterfaceFound:vector(packetBytes) ETV
attr interpolationmode none
attr recordingmode vector(packetBytes)
attr source packetDropReasonIsNoInterfaceFound(packetDropped)
attr title "packet drop: no interface found, packetBytes"
vector 135 HCCNetwork.host[1].ipv4.ip packetDropNoRouteFound:vector(packetBytes) ETV
attr interpolationmode none
attr recordingmode vector(packetBytes)
attr source packetDropReasonIsNoRouteFound(packetDropped)
attr title "packet drop: no route found, packetBytes"
vector 136 HCCNetwork.host[1].ipv4.ip packetDropUndefined:vector(packetBytes) ETV
attr interpolationmode none
attr recordingmode vector(packetBytes)
attr source packetDropReasonIsUndefined(packetDropped)
attr title "packet drop: undefined, packetBytes"
vector 137 HCCNetwork.host[1].ipv4.arp arpRequestSent:vector(packetBytes) ETV
attr recordingmode vector(packetBytes)
attr source arpRequestSent
attr title "ARP request sent, packetBytes"
vector 138 HCCNetwork.host[1].ipv4.arp arpReplySent:vector(packetBytes) ETV
attr recordingmode vector(packetBytes)
attr source arpReplySent
attr title "ARP replies sent, packetBytes"
vector 139 HCCNetwork.host[1].udp packetSent:vector(packetBytes) ETV
attr interpolationmode none
attr recordingmode vector(packetBytes)
attr source packetSent
attr title "packets sent, packetBytes"
vector 140 HCCNetwork.host[1].udp packetReceived:vector(packetBytes) ETV
attr interpolationmode none
attr recordingmode vector(packetBytes)
attr source packetReceived
attr title "packets received, packetBytes"
vector 141 HCCNetwork.host[1].udp passedUpPk:vector(count) ETV
attr interpolationmode none
attr recordingmode vector(count)
attr source packetSentToUpper
attr title "packets passed up, count"
vector 142 HCCNetwork.host[1].udp droppedPkWrongPort:vector(count) ETV
attr interpolationmode none
attr recordingmode vector(count)
attr source packetDropReasonIsNoPortFound(packetDropped)
attr title "packets dropped (wrong port), count"
vector 143 HCCNetwork.host[1].udp droppedPkBadChecksum:vector(count) ETV
attr interpolationmode none
attr recordingmode vector(count)
attr source packetDropReasonIsIncorrectlyReceived(packetDropped)
attr title "packets dropped (checksum error), count"
vector 144 HCCNetwork.host[1].app[0] clusterRole:vector ETV
attr recordingmode vector
attr source clusterRole
attr title "Cluster Role"
vector 145 HCCNetwork.host[1].app[0] nodeDegree:vector ETV
attr recordingmode vector
attr source nodeDegree
attr title "Node Degree"
vector 146 HCCNetwork.host[2].lo[0].lo rcvdPkFromHl:vector(packetBytes) ETV
attr interpolationmode none
attr recordingmode vector(packetBytes)
attr source packetReceivedFromUpper
attr title "packets received from higher layer, packetBytes"
vector 147 HCCNetwork.host[2].lo[0].lo passedUpPk:vector(packetBytes) ETV
attr interpolationmode none
attr recordingmode vector(packetBytes)
attr source packetSentToUpper
attr title "packets passed to higher layer, packetBytes"
vector 148 HCCNetwork.host[2].lo[0] packetDropInterfaceDown:vector(packetBytes) ETV
attr interpolationmode none
attr recordingmode vector(packetBytes)
attr source packetDropReasonIsInterfaceDown(packetDropped)
attr title "packet drops: interface down, packetBytes"
vector 149 HCCNetwork.host[2].lo[0] packetDropNoCarrier:vector(packetBytes) ETV
attr interpolationmode none
attr recordingmode vector(packetBytes)
attr source packetDropReasonIsNoCarrier(packetDropped)
attr title "packet drops: no carrier, packetBytes"
vector 150 HCCNetwork.host[2].wlan[0].mac.dcf.channelAccess.pendingQueue queueLength:vector ETV
attr autoWarmupFilter false
attr interpolationmode sample-hold
attr recordingmode vector
attr source "warmup(atomic(constant0(packetPushEnded) + count(packetPushStarted) - count(packetPulled) - count(packetRemoved) - count(packetDropped)))"
attr title "queue length"
attr unit pk
vector 151 HCCNetwork.host[2].wlan[0].mac.dcf.channelAccess.pendingQueue queueBitLength:vector ETV
attr autoWarmupFilter false
attr interpolationmode sample-hold
attr recordingmode vector
attr source "warmup(atomic(constant0(packetPushEnded) + sum(packetLength(packetPushStarted)) - sum(packetLength(packetPulled)) - sum(packetLength(packetRemoved)) - sum(packetLength(packetDropped))))"
attr title "queue bit length"
attr unit b
vector 152 HCCNetwork.host[2].wlan[0].mac.dcf.channelAccess.pendingQueue queueingTime:vector ETV
attr interpolationmode none
attr recordingmode vector
attr source queueingTime(packetPulled)
attr title "queueing times"
attr unit s
vector 153 HCCNetwork.host[2].wlan[0].mac.dcf.channelAccess.pendingQueue incomingPacketLengths:vector ETV
attr interpolationmode none
attr recordingmode vector
attr source packetLength(packetPushStarted)
attr title "incoming packet lengths"
attr unit b
vector 154 HCCNetwork.host[2].wlan[0].mac.dcf.channelAccess.pendingQueue incomingDataRate:vector ETV
attr interpolationmode linear
attr recordingmode vector
attr source throughput(packetPushStarted)
attr title "incoming datarate"
attr unit bps
vector 155 HCCNetwork.host[2].wlan[0].mac.dcf.channelAccess.pendingQueue outgoingPacketLengths:vector ETV
attr interpolationmode none
attr recordingmode vector
attr source packetLength(packetPulled)
attr title "outgoing packet lengths"
attr unit b
vector 156 HCCNetwork.host[2].wlan[0].mac.dcf.channelAccess.pendingQueue outgoingDataRate:vector ETV
attr interpolationmode linear
attr recordingmode vector
attr source throughput(packetPulled)
attr title "outgoing datarate"
attr unit bps
vector 157 HCCNetwork.host[2].wlan[0].mac.dcf.channelAccess.pendingQueue droppedPacketLengthsQueueOverflow:vector ETV
attr interpolationmode none
attr recordingmode vector
attr source packetLength(packetDropReasonIsQueueOverflow(packetDropped))
attr title "dropped packet lengths: queue overflow"
attr unit b
vector 158 HCCNetwork.host[2].wlan[0].mac.dcf.channelAccess.pendingQueue flowQueueingTime:vector ETV
attr interpolationmode none
attr recordingmode vector
attr source queueingTime(demuxFlow(packetPulled))
attr title "flow queueing times"
attr unit s
vector 159 HCCNetwork.host[2].wlan[0].mac.dcf.channelAccess.pendingQueue flowIncomingDataRate:vector ETV
attr interpolationmode linear
attr recordingmode vector
attr source throughput(flowPacketLength(demuxFlow(packetPushStarted)))
attr title "flow specific incoming data rate"
attr unit bps
vector 160 HCCNetwork.host[2].wlan[0].mac.dcf.channelAccess.pendingQueue flowOutgoingDataRate:vector ETV
attr interpolationmode linear
attr recordingmode vector
attr source throughput(flowPacketLength(demuxFlow(packetPulled)))
attr title "flow specific outgoing data rate"
attr unit bps
vector 161 HCCNetwork.host[2].wlan[0].mac.dcf.channelAccess.inProgressFrames queueingTime:vector ETV
attr interpolationmode none
attr recordingmode vector
attr source queueingTime(packetDequeued)
attr title "queueing times"
vector 162 HCCNetwork.host[2].wlan[0].mac.dcf.channelAccess.inProgressFrames queueLength:vector ETV
attr autoWarmupFilter false
attr interpolationmode sample-hold
attr recordingmode vector
attr source "warmup(count(packetEnqueued) - count(packetDequeued))"
attr title "queue length"
vector 163 HCCNetwork.host[2].wlan[0].mac.dcf.channelAccess.contention backoffPeriodGenerated:vector ETV
attr interpolationmode none
attr recordingmode vector
attr title "backoff periods"
vector 164 HCCNetwork.host[2].wlan[0].mac.dcf.channelAccess.contention backoffActive:vector ETV
attr autoWarmupFilter false
attr interpolationmode sample-hold
attr recordingmode vector
attr source warmup(count(backoffStarted)-count(backoffStopped))
attr title "backoff active"
vector 165 HCCNetwork.host[2].wlan[0].mac.dcf.channelAccess.contention stateChanged:vector ETV
attr enum IDLE,DEFER,IFS_AND_BACKOFF
attr interpolationmode none
attr recordingmode vector
attr title "contention state changed"
attr type enum
vector 166 HCCNetwork.host[2].wlan[0].mac.dcf.recipientMacDataService packetDropDuplicateDetected:vector(packetBytes) ETV
attr interpolationmode none
attr recordingmode vector(packetBytes)
attr source packetDropReasonIsDuplicateDetected(packetDropped)
attr title "packet drops: duplicate detected, packetBytes"
vector 167 HCCNetwork.host[2].wlan[0].mac.dcf.recoveryProcedure contentionWindowChanged:vector ETV
attr interpolationmode sample-hold
attr recordingmode vector
attr title "contention window"
vector 168 HCCNetwork.host[2].wlan[0].mac.dcf packetSentToPeer:vector(packetBytes) ETV
attr interpolationmode none
attr recordingmode vector(packetBytes)
attr title "packets sent, packetBytes"
vector 169 HCCNetwork.host[2].wlan[0].mac.dcf packetSentToPeerUnicast:vector(packetBytes) ETV
attr interpolationmode none
attr recordingmode vector(packetBytes)
attr source ieee80211Unicast(packetSentToPeer)
attr title "packets sent: unicast, packetBytes"
vector 170 HCCNetwork.host[2].wlan[0].mac.dcf packetSentToPeerMulticast:vector(packetBytes) ETV
attr interpolationmode none
attr recordingmode vector(packetBytes)
attr source ieee80211Multicast(packetSentToPeer)
attr title "packets sent: multicast, packetBytes"
vector 171 HCCNetwork.host[2].wlan[0].mac.dcf packetSentToPeerBroadcast:vector(packetBytes) ETV
attr interpolationmode none
attr recordingmode vector(packetBytes)
attr source ieee80211Broadcast(packetSentToPeer)
attr title "packets sent: broadcast , packetBytes"
vector 172 HCCNetwork.host[2].wlan[0].mac.dcf packetSentToPeerWithRetry:vector(packetBytes) ETV
attr interpolationmode none
attr recordingmode vector(packetBytes)
attr source ieee80211Retry(packetSentToPeer)
attr title "packets sent: with retry, packetBytes"
vector 173 HCCNetwork.host[2].wlan[0].mac.dcf packetSentToPeerWithoutRetry:vector(packetBytes) ETV
attr interpolationmode none
attr recordingmode vector(packetBytes)
attr source ieee80211NotRetry(packetSentToPeer)
attr title "packets sent: without retry, packetBytes"
vector 174 HCCNetwork.host[2].wlan[0].mac.dcf packetReceivedFromPeer:vector(packetBytes) ETV
attr interpolationmode none
attr recordingmode vector(packetBytes)
attr title "packets received, packetBytes"
vector 175 HCCNetwork.host[2].wlan[0].mac.dcf packetReceivedFromPeerUnicast:vector(packetBytes) ETV
attr interpolationmode none
attr recordingmode vector(packetBytes)
attr source ieee80211Unicast(packetReceivedFromPeer)
attr title "packets received: unicast, packetBytes"
vector 176 HCCNetwork.host[2].wlan[0].mac.dcf packetReceivedFromPeerMulticast:vector(packetBytes) ETV
attr interpolationmode none
attr recordingmode vector(packetBytes)
attr source ieee80211Multicast(packetReceivedFromPeer)
attr title "packets received: multicast, packetBytes"
vector 177 HCCNetwork.host[2].wlan[0].mac.dcf packetReceivedFromPeerBroadcast:vector(packetBytes) ETV
attr interpolationmode none
attr recordingmode vector(packetBytes)
attr source ieee80211Broadcast(packetReceivedFromPeer)
attr title "packets received: broadcast, packetBytes"
vector 178 HCCNetwork.host[2].wlan[0].mac.dcf packetReceivedFromPeerWithRetry:vector(packetBytes) ETV
attr interpolationmode none
attr recordingmode vector(packetBytes)
attr source ieee80211Retry(packetReceivedFromPeer)
attr title "packets received: with retry, packetBytes"
vector 179 HCCNetwork.host[2].wlan[0].mac.dcf packetReceivedFromPeerWithoutRetry:vector(packetBytes) ETV
attr interpolationmode none
attr recordingmode vector(packetBytes)
attr source ieee80211NotRetry(packetReceivedFromPeer)
attr title "packets received: without retry, packetBytes"
vector 180 HCCNetwork.host[2].wlan[0].mac.dcf packetDrop:vector(packetBytes) ETV
attr interpolationmode none
attr recordingmode vector(packetBytes)
attr source packetDropped
attr title "packet drops, packetBytes"
vector 181 HCCNetwork.host[2].wlan[0].mac.dcf packetDropNotAddressedToUs:vector(packetBytes) ETV
attr interpolationmode none
attr recordingmode vector(packetBytes)
attr source packetDropReasonIsNotAddressedToUs(packetDropped)
attr title "packet drops: not addressed to us, packetBytes"
vector 182 HCCNetwork.host[2].wlan[0].mac.dcf packetDropQueueOverflow:vector(packetBytes) ETV
attr interpolationmode none
attr recordingmode vector(packetBytes)
attr source packetDropReasonIsQueueOverflow(packetDropped)
attr title "packet drops: queue overflow, packetBytes"
vector 183 HCCNetwork.host[2].wlan[0].mac.dcf packetDropRetryLimitReached:vector(packetBytes) ETV
attr interpolationmode none
attr recordingmode vector(packetBytes)
attr source packetDropReasonIsRetryLimitReached(packetDropped)
attr title "packet drops: retry limit reached, packetBytes"
vector 184 HCCNetwork.host[2].wlan[0].mac.dcf frameSequenceActive:vector ETV
attr autoWarmupFilter false
attr interpolationmode sample-hold
attr recordingmode vector
attr source warmup(count(frameSequenceStarted)-count(frameSequenceFinished))
attr title "frame sequence active"
vector 185 HCCNetwork.host[2].wlan[0].mac.dcf datarateSelected:vector ETV
attr interpolationmode none
attr recordingmode vector
attr title "datarates selected"
vector 186 HCCNetwork.host[2].wlan[0].mac.rx nav:vector ETV
attr interpolationmode linear
attr recordingmode vector
attr source navChanged
attr title "network allocation vector"
vector 187 HCCNetwork.host[2].wlan[0].mac packetSentToUpper:vector(packetBytes) ETV
attr interpolationmode none
attr recordingmode vector(packetBytes)
attr title "packets sent to upper layer, packetBytes"
vector 188 HCCNetwork.host[2].wlan[0].mac packetSentToLower:vector(packetBytes) ETV
attr interpolationmode none
attr recordingmode vector(packetBytes)
attr title "packets sent to lower layer, packetBytes"
vector 189 HCCNetwork.host[2].wlan[0].mac packetReceivedFromUpper:vector(packetBytes) ETV
attr interpolationmode none
attr recordingmode vector(packetBytes)
attr title "packets received from upper layer, packetBytes"
vector 190 HCCNetwork.host[2].wlan[0].mac packetReceivedFromLower:vector(packetBytes) ETV
attr interpolationmode none
attr recordingmode vector(packetBytes)
attr title "packets received from lower layer, packetBytes"
vector 191 HCCNetwork.host[2].wlan[0].mac packetDrop:vector(packetBytes) ETV
attr interpolationmode none
attr recordingmode vector(packetBytes)
attr source packetDropped
attr title "packet drops, packetBytes"
vector 192 HCCNetwork.host[2].wlan[0].mac packetDropIncorrectlyReceived:vector(packetBytes) ETV
attr interpolationmode none
attr recordingmode vector(packetBytes)
attr source packetDropReasonIsIncorrectlyReceived(packetDropped)
attr title "packet drops: incorrectly received, packetBytes"
vector 193 HCCNetwork.host[2].wlan[0].mac packetDropNotAddressedToUs:vector(packetBytes) ETV
attr interpolationmode none
attr recordingmode vector(packetBytes)
attr source packetDropReasonIsNotAddressedToUs(packetDropped)
attr title "packet drops: not addressed to us, packetBytes"
vector 194 HCCNetwork.host[2].wlan[0].mac packetDropQueueOverflow:vector(packetBytes) ETV
attr interpolationmode none
attr recordingmode vector(packetBytes)
attr source packetDropReasonIsQueueOverflow(packetDropped)
attr title "packet drops: queue overflow, packetBytes"
vector 195 HCCNetwork.host[2].wlan[0].mac packetDropRetryLimitReached:vector(packetBytes) ETV
attr interpolationmode none
attr recordingmode vector(packetBytes)
attr source packetDropReasonIsRetryLimitReached(packetDropped)
attr title "packet drops: retry limit reached, packetBytes"
vector 196 HCCNetwork.host[2].wlan[0].mac packetDropDuplicateDetected:vector(packetBytes) ETV
attr interpolationmode none
attr recordingmode vector(packetBytes)
attr source packetDropReasonIsDuplicateDetected(packetDropped)
attr title "packet drops: duplicate detected, packetBytes"
vector 197 HCCNetwork.host[2].wlan[0].mac packetDropOther:vector(packetBytes) ETV
attr interpolationmode none
attr recordingmode vector(packetBytes)
attr source packetDropReasonIsOther(packetDropped)
attr title "packet drops: other, packetBytes"
vector 198 HCCNetwork.host[2].wlan[0].radio radioMode:vector ETV
attr interpolationmode sample-hold
attr recordingmode vector
attr source radioModeChanged
attr title "Radio mode"
vector 199 HCCNetwork.host[2].wlan[0].radio receptionState:vector ETV
attr interpolationmode sample-hold
attr recordingmode vector
attr source receptionStateChanged
attr title "Radio reception state"
vector 200 HCCNetwork.host[2].wlan[0].radio transmissionState:vector ETV
attr interpolationmode sample-hold
attr recordingmode vector
attr source transmissionStateChanged
attr title "Radio transmission state"
vector 201 HCCNetwork.host[2].wlan[0].radio radioChannel:vector ETV
attr interpolationmode sample-hold
attr recordingmode vector
attr source radioChannelChanged
attr title "Radio channel"
vector 202 HCCNetwork.host[2].wlan[0] packetDropInterfaceDown:vector(packetBytes) ETV
attr interpolationmode none
attr recordingmode vector(packetBytes)
attr source packetDropReasonIsInterfaceDown(packetDropped)
attr title "packet drops: interface down, packetBytes"
vector 203 HCCNetwork.host[2].wlan[0] packetDropNoCarrier:vector(packetBytes) ETV
attr interpolationmode none
attr recordingmode vector(packetBytes)
attr source packetDropReasonIsNoCarrier(packetDropped)
attr title "packet drops: no carrier, packetBytes"
vector 204 HCCNetwork.host[2].ipv4.ip packetDropAddressResolutionFailed:vector(packetBytes) ETV
attr interpolationmode none
attr recordingmode vector(packetBytes)
attr source packetDropReasonIsAddressResolutionFailed(packetDropped)
attr title "packet drop: address resolution failed, packetBytes"
vector 205 HCCNetwork.host[2].ipv4.ip packetDropHopLimitReached:vector(packetBytes) ETV
attr interpolationmode none
attr recordingmode vector(packetBytes)
attr source packetDropReasonIsHopLimitReached(packetDropped)
attr title "packet drop: hop limit reached, packetBytes"
vector 206 HCCNetwork.host[2].ipv4.ip packetDropForwardingDisabled:vector(packetBytes) ETV
attr interpolationmode none
attr recordingmode vector(packetBytes)
attr source packetDropReasonIsForwardingDisabled(packetDropped)
attr title "packet drop: forwarding disabled, packetBytes"
vector 207 HCCNetwork.host[2].ipv4.ip packetDropNoInterfaceFound:vector(packetBytes) ETV
attr interpolationmode none
attr recordingmode vector(packetBytes)
attr source packetDropReasonIsNoInterfaceFound(packetDropped)
attr title "packet drop: no interface found, packetBytes"
vector 208 HCCNetwork.host[2].ipv4.ip packetDropNoRouteFound:vector(packetBytes) ETV
attr interpolationmode none
attr recordingmode vector(packetBytes)
attr source packetDropReasonIsNoRouteFound(packetDropped)
attr title "packet drop: no route found, packetBytes"
vector 209 HCCNetwork.host[2].ipv4.ip packetDropUndefined:vector(packetBytes) ETV
attr interpolationmode none
attr recordingmode vector(packetBytes)
attr source packetDropReasonIsUndefined(packetDropped)
attr title "packet drop: undefined, packetBytes"
vector 210 HCCNetwork.host[2].ipv4.arp arpRequestSent:vector(packetBytes) ETV
attr recordingmode vector(packetBytes)
attr source arpRequestSent
attr title "ARP request sent, packetBytes"
vector 211 HCCNetwork.host[2].ipv4.arp arpReplySent:vector(packetBytes) ETV
attr recordingmode vector(packetBytes)
attr source arpReplySent
attr title "ARP replies sent, packetBytes"
vector 212 HCCNetwork.host[2].udp packetSent:vector(packetBytes) ETV
attr interpolationmode none
attr recordingmode vector(packetBytes)
attr source packetSent
attr title "packets sent, packetBytes"
vector 213 HCCNetwork.host[2].udp packetReceived:vector(packetBytes) ETV
attr interpolationmode none
attr recordingmode vector(packetBytes)
attr source packetReceived
attr title "packets received, packetBytes"
vector 214 HCCNetwork.host[2].udp passedUpPk:vector(count) ETV
attr interpolationmode none
attr recordingmode vector(count)
attr source packetSentToUpper
attr title "packets passed up, count"
vector 215 HCCNetwork.host[2].udp droppedPkWrongPort:vector(count) ETV
attr interpolationmode none
attr recordingmode vector(count)
attr source packetDropReasonIsNoPortFound(packetDropped)
attr title "packets dropped (wrong port), count"
vector 216 HCCNetwork.host[2].udp droppedPkBadChecksum:vector(count) ETV
attr interpolationmode none
attr recordingmode vector(count)
attr source packetDropReasonIsIncorrectlyReceived(packetDropped)
attr title "packets dropped (checksum error), count"
vector 217 HCCNetwork.host[2].app[0] clusterRole:vector ETV
attr recordingmode vector
attr source clusterRole
attr title "Cluster Role"
vector 218 HCCNetwork.host[2].app[0] nodeDegree:vector ETV
attr recordingmode vector
attr source nodeDegree
attr title "Node Degree"
vector 219 HCCNetwork.host[3].lo[0].lo rcvdPkFromHl:vector(packetBytes) ETV
attr interpolationmode none
attr recordingmode vector(packetBytes)
attr source packetReceivedFromUpper
attr title "packets received from higher layer, packetBytes"
vector 220 HCCNetwork.host[3].lo[0].lo passedUpPk:vector(packetBytes) ETV
attr interpolationmode none
attr recordingmode vector(packetBytes)
attr source packetSentToUpper
attr title "packets passed to higher layer, packetBytes"
vector 221 HCCNetwork.host[3].lo[0] packetDropInterfaceDown:vector(packetBytes) ETV
attr interpolationmode none
attr recordingmode vector(packetBytes)
attr source packetDropReasonIsInterfaceDown(packetDropped)
attr title "packet drops: interface down, packetBytes"
vector 222 HCCNetwork.host[3].lo[0] packetDropNoCarrier:vector(packetBytes) ETV
attr interpolationmode none
attr recordingmode vector(packetBytes)
attr source packetDropReasonIsNoCarrier(packetDropped)
attr title "packet drops: no carrier, packetBytes"
vector 223 HCCNetwork.host[3].wlan[0].mac.dcf.channelAccess.pendingQueue queueLength:vector ETV
attr autoWarmupFilter false
attr interpolationmode sample-hold
attr recordingmode vector
attr source "warmup(atomic(constant0(packetPushEnded) + count(packetPushStarted) - count(packetPulled) - count(packetRemoved) - count(packetDropped)))"
attr title "queue length"
attr unit pk
vector 224 HCCNetwork.host[3].wlan[0].mac.dcf.channelAccess.pendingQueue queueBitLength:vector ETV
attr autoWarmupFilter false
attr interpolationmode sample-hold
attr recordingmode vector
attr source "warmup(atomic(constant0(packetPushEnded) + sum(packetLength(packetPushStarted)) - sum(packetLength(packetPulled)) - sum(packetLength(packetRemoved)) - sum(packetLength(packetDropped))))"
attr title "queue bit length"
attr unit b
vector 225 HCCNetwork.host[3].wlan[0].mac.dcf.channelAccess.pendingQueue queueingTime:vector ETV
attr interpolationmode none
attr recordingmode vector
attr source queueingTime(packetPulled)
attr title "queueing times"
attr unit s
vector 226 HCCNetwork.host[3].wlan[0].mac.dcf.channelAccess.pendingQueue incomingPacketLengths:vector ETV
attr interpolationmode none
attr recordingmode vector
attr source packetLength(packetPushStarted)
attr title "incoming packet lengths"
attr unit b
vector 227 HCCNetwork.host[3].wlan[0].mac.dcf.channelAccess.pendingQueue incomingDataRate:vector ETV
attr interpolationmode linear
attr recordingmode vector
attr source throughput(packetPushStarted)
attr title "incoming datarate"
attr unit bps
vector 228 HCCNetwork.host[3].wlan[0].mac.dcf.channelAccess.pendingQueue outgoingPacketLengths:vector ETV
attr interpolationmode none
attr recordingmode vector
attr source packetLength(packetPulled)
attr title "outgoing packet lengths"
attr unit b
vector 229 HCCNetwork.host[3].wlan[0].mac.dcf.channelAccess.pendingQueue outgoingDataRate:vector ETV
attr interpolationmode linear
attr recordingmode vector
attr source throughput(packetPulled)
attr title "outgoing datarate"
attr unit bps
vector 230 HCCNetwork.host[3].wlan[0].mac.dcf.channelAccess.pendingQueue droppedPacketLengthsQueueOverflow:vector ETV
attr interpolationmode none
attr recordingmode vector
attr source packetLength(packetDropReasonIsQueueOverflow(packetDropped))
attr title "dropped packet lengths: queue overflow"
attr unit b
vector 231 HCCNetwork.host[3].wlan[0].mac.dcf.channelAccess.pendingQueue flowQueueingTime:vector ETV
attr interpolationmode none
attr recordingmode vector
attr source queueingTime(demuxFlow(packetPulled))
attr title "flow queueing times"
attr unit s
vector 232 HCCNetwork.host[3].wlan[0].mac.dcf.channelAccess.pendingQueue flowIncomingDataRate:vector ETV
attr interpolationmode linear
attr recordingmode vector
attr source throughput(flowPacketLength(demuxFlow(packetPushStarted)))
attr title "flow specific incoming data rate"
attr unit bps
vector 233 HCCNetwork.host[3].wlan[0].mac.dcf.channelAccess.pendingQueue flowOutgoingDataRate:vector ETV
attr interpolationmode linear
attr recordingmode vector
attr source throughput(flowPacketLength(demuxFlow(packetPulled)))
attr title "flow specific outgoing data rate"
attr unit bps
vector 234 HCCNetwork.host[3].wlan[0].mac.dcf.channelAccess.inProgressFrames queueingTime:vector ETV
attr interpolationmode none
attr recordingmode vector
attr source queueingTime(packetDequeued)
attr title "queueing times"
vector 235 HCCNetwork.host[3].wlan[0].mac.dcf.channelAccess.inProgressFrames queueLength:vector ETV
attr autoWarmupFilter false
attr interpolationmode sample-hold
attr recordingmode vector
attr source "warmup(count(packetEnqueued) - count(packetDequeued))"
attr title "queue length"
vector 236 HCCNetwork.host[3].wlan[0].mac.dcf.channelAccess.contention backoffPeriodGenerated:vector ETV
attr interpolationmode none
attr recordingmode vector
attr title "backoff periods"
vector 237 HCCNetwork.host[3].wlan[0].mac.dcf.channelAccess.contention backoffActive:vector ETV
attr autoWarmupFilter false
attr interpolationmode sample-hold
attr recordingmode vector
attr source warmup(count(backoffStarted)-count(backoffStopped))
attr title "backoff active"
vector 238 HCCNetwork.host[3].wlan[0].mac.dcf.channelAccess.contention stateChanged:vector ETV
attr enum IDLE,DEFER,IFS_AND_BACKOFF
attr interpolationmode none
attr recordingmode vector
attr title "contention state changed"
attr type enum
vector 239 HCCNetwork.host[3].wlan[0].mac.dcf.recipientMacDataService packetDropDuplicateDetected:vector(packetBytes) ETV
attr interpolationmode none
attr recordingmode vector(packetBytes)
attr source packetDropReasonIsDuplicateDetected(packetDropped)
attr title "packet drops: duplicate detected, packetBytes"
vector 240 HCCNetwork.host[3].wlan[0].mac.dcf.recoveryProcedure contentionWindowChanged:vector ETV
attr interpolationmode sample-hold
attr recordingmode vector
attr title "contention window"
vector 241 HCCNetwork.host[3].wlan[0].mac.dcf packetSentToPeer:vector(packetBytes) ETV
attr interpolationmode none
attr recordingmode vector(packetBytes)
attr title "packets sent, packetBytes"
vector 242 HCCNetwork.host[3].wlan[0].mac.dcf packetSentToPeerUnicast:vector(packetBytes) ETV
attr interpolationmode none
attr recordingmode vector(packetBytes)
attr source ieee80211Unicast(packetSentToPeer)
attr title "packets sent: unicast, packetBytes"
vector 243 HCCNetwork.host[3].wlan[0].mac.dcf packetSentToPeerMulticast:vector(packetBytes) ETV
attr interpolationmode none
attr recordingmode vector(packetBytes)
attr source ieee80211Multicast(packetSentToPeer)
attr title "packets sent: multicast, packetBytes"
vector 244 HCCNetwork.host[3].wlan[0].mac.dcf packetSentToPeerBroadcast:vector(packetBytes) ETV
attr interpolationmode none
attr recordingmode vector(packetBytes)
attr source ieee80211Broadcast(packetSentToPeer)
attr title "packets sent: broadcast , packetBytes"
vector 245 HCCNetwork.host[3].wlan[0].mac.dcf packetSentToPeerWithRetry:vector(packetBytes) ETV
attr interpolationmode none
attr recordingmode vector(packetBytes)
attr source ieee80211Retry(packetSentToPeer)
attr title "packets sent: with retry, packetBytes"
vector 246 HCCNetwork.host[3].wlan[0].mac.dcf packetSentToPeerWithoutRetry:vector(packetBytes) ETV
attr interpolationmode none
attr recordingmode vector(packetBytes)
attr source ieee80211NotRetry(packetSentToPeer)
attr title "packets sent: without retry, packetBytes"
vector 247 HCCNetwork.host[3].wlan[0].mac.dcf packetReceivedFromPeer:vector(packetBytes) ETV
attr interpolationmode none
attr recordingmode vector(packetBytes)
attr title "packets received, packetBytes"
vector 248 HCCNetwork.host[3].wlan[0].mac.dcf packetReceivedFromPeerUnicast:vector(packetBytes) ETV
attr interpolationmode none
attr recordingmode vector(packetBytes)
attr source ieee80211Unicast(packetReceivedFromPeer)
attr title "packets received: unicast, packetBytes"
vector 249 HCCNetwork.host[3].wlan[0].mac.dcf packetReceivedFromPeerMulticast:vector(packetBytes) ETV
attr interpolationmode none
attr recordingmode vector(packetBytes)
attr source ieee80211Multicast(packetReceivedFromPeer)
attr title "packets received: multicast, packetBytes"
vector 250 HCCNetwork.host[3].wlan[0].mac.dcf packetReceivedFromPeerBroadcast:vector(packetBytes) ETV
attr interpolationmode none
attr recordingmode vector(packetBytes)
attr source ieee80211Broadcast(packetReceivedFromPeer)
attr title "packets received: broadcast, packetBytes"
vector 251 HCCNetwork.host[3].wlan[0].mac.dcf packetReceivedFromPeerWithRetry:vector(packetBytes) ETV
attr interpolationmode none
attr recordingmode vector(packetBytes)
attr source ieee80211Retry(packetReceivedFromPeer)
attr title "packets received: with retry, packetBytes"
vector 252 HCCNetwork.host[3].wlan[0].mac.dcf packetReceivedFromPeerWithoutRetry:vector(packetBytes) ETV
attr interpolationmode none
attr recordingmode vector(packetBytes)
attr source ieee80211NotRetry(packetReceivedFromPeer)
attr title "packets received: without retry, packetBytes"
vector 253 HCCNetwork.host[3].wlan[0].mac.dcf packetDrop:vector(packetBytes) ETV
attr interpolationmode none
attr recordingmode vector(packetBytes)
attr source packetDropped
attr title "packet drops, packetBytes"
vector 254 HCCNetwork.host[3].wlan[0].mac.dcf packetDropNotAddressedToUs:vector(packetBytes) ETV
attr interpolationmode none
attr recordingmode vector(packetBytes)
attr source packetDropReasonIsNotAddressedToUs(packetDropped)
attr title "packet drops: not addressed to us, packetBytes"
vector 255 HCCNetwork.host[3].wlan[0].mac.dcf packetDropQueueOverflow:vector(packetBytes) ETV
attr interpolationmode none
attr recordingmode vector(packetBytes)
attr source packetDropReasonIsQueueOverflow(packetDropped)
attr title "packet drops: queue overflow, packetBytes"
vector 256 HCCNetwork.host[3].wlan[0].mac.dcf packetDropRetryLimitReached:vector(packetBytes) ETV
attr interpolationmode none
attr recordingmode vector(packetBytes)
attr source packetDropReasonIsRetryLimitReached(packetDropped)
attr title "packet drops: retry limit reached, packetBytes"
vector 257 HCCNetwork.host[3].wlan[0].mac.dcf frameSequenceActive:vector ETV
attr autoWarmupFilter false
attr interpolationmode sample-hold
attr recordingmode vector
attr source warmup(count(frameSequenceStarted)-count(frameSequenceFinished))
attr title "frame sequence active"
vector 258 HCCNetwork.host[3].wlan[0].mac.dcf datarateSelected:vector ETV
attr interpolationmode none
attr recordingmode vector
attr title "datarates selected"
vector 259 HCCNetwork.host[3].wlan[0].mac.rx nav:vector ETV
attr interpolationmode linear
attr recordingmode vector
attr source navChanged
attr title "network allocation vector"
vector 260 HCCNetwork.host[3].wlan[0].mac packetSentToUpper:vector(packetBytes) ETV
attr interpolationmode none
attr recordingmode vector(packetBytes)
attr title "packets sent to upper layer, packetBytes"
vector 261 HCCNetwork.host[3].wlan[0].mac packetSentToLower:vector(packetBytes) ETV
attr interpolationmode none
attr recordingmode vector(packetBytes)
attr title "packets sent to lower layer, packetBytes"
vector 262 HCCNetwork.host[3].wlan[0].mac packetReceivedFromUpper:vector(packetBytes) ETV
attr interpolationmode none
attr recordingmode vector(packetBytes)
attr title "packets received from upper layer, packetBytes"
vector 263 HCCNetwork.host[3].wlan[0].mac packetReceivedFromLower:vector(packetBytes) ETV
attr interpolationmode none
attr recordingmode vector(packetBytes)
attr title "packets received from lower layer, packetBytes"
vector 264 HCCNetwork.host[3].wlan[0].mac packetDrop:vector(packetBytes) ETV
attr interpolationmode none
attr recordingmode vector(packetBytes)
attr source packetDropped
attr title "packet drops, packetBytes"
vector 265 HCCNetwork.host[3].wlan[0].mac packetDropIncorrectlyReceived:vector(packetBytes) ETV
attr interpolationmode none
attr recordingmode vector(packetBytes)
attr source packetDropReasonIsIncorrectlyReceived(packetDropped)
attr title "packet drops: incorrectly received, packetBytes"
vector 266 HCCNetwork.host[3].wlan[0].mac packetDropNotAddressedToUs:vector(packetBytes) ETV
attr interpolationmode none
attr recordingmode vector(packetBytes)
attr source packetDropReasonIsNotAddressedToUs(packetDropped)
attr title "packet drops: not addressed to us, packetBytes"
vector 267 HCCNetwork.host[3].wlan[0].mac packetDropQueueOverflow:vector(packetBytes) ETV
attr interpolationmode none
attr recordingmode vector(packetBytes)
attr source packetDropReasonIsQueueOverflow(packetDropped)
attr title "packet drops: queue overflow, packetBytes"
vector 268 HCCNetwork.host[3].wlan[0].mac packetDropRetryLimitReached:vector(packetBytes) ETV
attr interpolationmode none
attr recordingmode vector(packetBytes)
attr source packetDropReasonIsRetryLimitReached(packetDropped)
attr title "packet drops: retry limit reached, packetBytes"
vector 269 HCCNetwork.host[3].wlan[0].mac packetDropDuplicateDetected:vector(packetBytes) ETV
attr interpolationmode none
attr recordingmode vector(packetBytes)
attr source packetDropReasonIsDuplicateDetected(packetDropped)
attr title "packet drops: duplicate detected, packetBytes"
vector 270 HCCNetwork.host[3].wlan[0].mac packetDropOther:vector(packetBytes) ETV
attr interpolationmode none
attr recordingmode vector(packetBytes)
attr source packetDropReasonIsOther(packetDropped)
attr title "packet drops: other, packetBytes"
vector 271 HCCNetwork.host[3].wlan[0].radio radioMode:vector ETV
attr interpolationmode sample-hold
attr recordingmode vector
attr source radioModeChanged
attr title "Radio mode"
vector 272 HCCNetwork.host[3].wlan[0].radio receptionState:vector ETV
attr interpolationmode sample-hold
attr recordingmode vector
attr source receptionStateChanged
attr title "Radio reception state"
vector 273 HCCNetwork.host[3].wlan[0].radio transmissionState:vector ETV
attr interpolationmode sample-hold
attr recordingmode vector
attr source transmissionStateChanged
attr title "Radio transmission state"
vector 274 HCCNetwork.host[3].wlan[0].radio radioChannel:vector ETV
attr interpolationmode sample-hold
attr recordingmode vector
attr source radioChannelChanged
attr title "Radio channel"
vector 275 HCCNetwork.host[3].wlan[0] packetDropInterfaceDown:vector(packetBytes) ETV
attr interpolationmode none
attr recordingmode vector(packetBytes)
attr source packetDropReasonIsInterfaceDown(packetDropped)
attr title "packet drops: interface down, packetBytes"
vector 276 HCCNetwork.host[3].wlan[0] packetDropNoCarrier:vector(packetBytes) ETV
attr interpolationmode none
attr recordingmode vector(packetBytes)
attr source packetDropReasonIsNoCarrier(packetDropped)
attr title "packet drops: no carrier, packetBytes"
vector 277 HCCNetwork.host[3].ipv4.ip packetDropAddressResolutionFailed:vector(packetBytes) ETV
attr interpolationmode none
attr recordingmode vector(packetBytes)
attr source packetDropReasonIsAddressResolutionFailed(packetDropped)
attr title "packet drop: address resolution failed, packetBytes"
vector 278 HCCNetwork.host[3].ipv4.ip packetDropHopLimitReached:vector(packetBytes) ETV
attr interpolationmode none
attr recordingmode vector(packetBytes)
attr source packetDropReasonIsHopLimitReached(packetDropped)
attr title "packet drop: hop limit reached, packetBytes"
vector 279 HCCNetwork.host[3].ipv4.ip packetDropForwardingDisabled:vector(packetBytes) ETV
attr interpolationmode none
attr recordingmode vector(packetBytes)
attr source packetDropReasonIsForwardingDisabled(packetDropped)
attr title "packet drop: forwarding disabled, packetBytes"
vector 280 HCCNetwork.host[3].ipv4.ip packetDropNoInterfaceFound:vector(packetBytes) ETV
attr interpolationmode none
attr recordingmode vector(packetBytes)
attr source packetDropReasonIsNoInterfaceFound(packetDropped)
attr title "packet drop: no interface found, packetBytes"
vector 281 HCCNetwork.host[3].ipv4.ip packetDropNoRouteFound:vector(packetBytes) ETV
attr interpolationmode none
attr recordingmode vector(packetBytes)
attr source packetDropReasonIsNoRouteFound(packetDropped)
attr title "packet drop: no route found, packetBytes"
vector 282 HCCNetwork.host[3].ipv4.ip packetDropUndefined:vector(packetBytes) ETV
attr interpolationmode none
attr recordingmode vector(packetBytes)
attr source packetDropReasonIsUndefined(packetDropped)
attr title "packet drop: undefined, packetBytes"
vector 283 HCCNetwork.host[3].ipv4.arp arpRequestSent:vector(packetBytes) ETV
attr recordingmode vector(packetBytes)
attr source arpRequestSent
attr title "ARP request sent, packetBytes"
vector 284 HCCNetwork.host[3].ipv4.arp arpReplySent:vector(packetBytes) ETV
attr recordingmode vector(packetBytes)
attr source arpReplySent
attr title "ARP replies sent, packetBytes"
vector 285 HCCNetwork.host[3].udp packetSent:vector(packetBytes) ETV
attr interpolationmode none
attr recordingmode vector(packetBytes)
attr source packetSent
attr title "packets sent, packetBytes"
vector 286 HCCNetwork.host[3].udp packetReceived:vector(packetBytes) ETV
attr interpolationmode none
attr recordingmode vector(packetBytes)
attr source packetReceived
attr title "packets received, packetBytes"
vector 287 HCCNetwork.host[3].udp passedUpPk:vector(count) ETV
attr interpolationmode none
attr recordingmode vector(count)
attr source packetSentToUpper
attr title "packets passed up, count"
vector 288 HCCNetwork.host[3].udp droppedPkWrongPort:vector(count) ETV
attr interpolationmode none
attr recordingmode vector(count)
attr source packetDropReasonIsNoPortFound(packetDropped)
attr title "packets dropped (wrong port), count"
vector 289 HCCNetwork.host[3].udp droppedPkBadChecksum:vector(count) ETV
attr interpolationmode none
attr recordingmode vector(count)
attr source packetDropReasonIsIncorrectlyReceived(packetDropped)
attr title "packets dropped (checksum error), count"
vector 290 HCCNetwork.host[3].app[0] clusterRole:vector ETV
attr recordingmode vector
attr source clusterRole
attr title "Cluster Role"
vector 291 HCCNetwork.host[3].app[0] nodeDegree:vector ETV
attr recordingmode vector
attr source nodeDegree
attr title "Node Degree"
vector 292 HCCNetwork.host[4].lo[0].lo rcvdPkFromHl:vector(packetBytes) ETV
attr interpolationmode none
attr recordingmode vector(packetBytes)
attr source packetReceivedFromUpper
attr title "packets received from higher layer, packetBytes"
vector 293 HCCNetwork.host[4].lo[0].lo passedUpPk:vector(packetBytes) ETV
attr interpolationmode none
attr recordingmode vector(packetBytes)
attr source packetSentToUpper
attr title "packets passed to higher layer, packetBytes"
vector 294 HCCNetwork.host[4].lo[0] packetDropInterfaceDown:vector(packetBytes) ETV
attr interpolationmode none
attr recordingmode vector(packetBytes)
attr source packetDropReasonIsInterfaceDown(packetDropped)
attr title "packet drops: interface down, packetBytes"
vector 295 HCCNetwork.host[4].lo[0] packetDropNoCarrier:vector(packetBytes) ETV
attr interpolationmode none
attr recordingmode vector(packetBytes)
attr source packetDropReasonIsNoCarrier(packetDropped)
attr title "packet drops: no carrier, packetBytes"
vector 296 HCCNetwork.host[4].wlan[0].mac.dcf.channelAccess.pendingQueue queueLength:vector ETV
attr autoWarmupFilter false
attr interpolationmode sample-hold
attr recordingmode vector
attr source "warmup(atomic(constant0(packetPushEnded) + count(packetPushStarted) - count(packetPulled) - count(packetRemoved) - count(packetDropped)))"
attr title "queue length"
attr unit pk
vector 297 HCCNetwork.host[4].wlan[0].mac.dcf.channelAccess.pendingQueue queueBitLength:vector ETV
attr autoWarmupFilter false
attr interpolationmode sample-hold
attr recordingmode vector
attr source "warmup(atomic(constant0(packetPushEnded) + sum(packetLength(packetPushStarted)) - sum(packetLength(packetPulled)) - sum(packetLength(packetRemoved)) - sum(packetLength(packetDropped))))"
attr title "queue bit length"
attr unit b
vector 298 HCCNetwork.host[4].wlan[0].mac.dcf.channelAccess.pendingQueue queueingTime:vector ETV
attr interpolationmode none
attr recordingmode vector
attr source queueingTime(packetPulled)
attr title "queueing times"
attr unit s
vector 299 HCCNetwork.host[4].wlan[0].mac.dcf.channelAccess.pendingQueue incomingPacketLengths:vector ETV
attr interpolationmode none
attr recordingmode vector
attr source packetLength(packetPushStarted)
attr title "incoming packet lengths"
attr unit b
vector 300 HCCNetwork.host[4].wlan[0].mac.dcf.channelAccess.pendingQueue incomingDataRate:vector ETV
attr interpolationmode linear
attr recordingmode vector
attr source throughput(packetPushStarted)
attr title "incoming datarate"
attr unit bps
vector 301 HCCNetwork.host[4].wlan[0].mac.dcf.channelAccess.pendingQueue outgoingPacketLengths:vector ETV
attr interpolationmode none
attr recordingmode vector
attr source packetLength(packetPulled)
attr title "outgoing packet lengths"
attr unit b
vector 302 HCCNetwork.host[4].wlan[0].mac.dcf.channelAccess.pendingQueue outgoingDataRate:vector ETV
attr interpolationmode linear
attr recordingmode vector
attr source throughput(packetPulled)
attr title "outgoing datarate"
attr unit bps
vector 303 HCCNetwork.host[4].wlan[0].mac.dcf.channelAccess.pendingQueue droppedPacketLengthsQueueOverflow:vector ETV
attr interpolationmode none
attr recordingmode vector
attr source packetLength(packetDropReasonIsQueueOverflow(packetDropped))
attr title "dropped packet lengths: queue overflow"
attr unit b
vector 304 HCCNetwork.host[4].wlan[0].mac.dcf.channelAccess.pendingQueue flowQueueingTime:vector ETV
attr interpolationmode none
attr recordingmode vector
attr source queueingTime(demuxFlow(packetPulled))
attr title "flow queueing times"
attr unit s
vector 305 HCCNetwork.host[4].wlan[0].mac.dcf.channelAccess.pendingQueue flowIncomingDataRate:vector ETV
attr interpolationmode linear
attr recordingmode vector
attr source throughput(flowPacketLength(demuxFlow(packetPushStarted)))
attr title "flow specific incoming data rate"
attr unit bps
vector 306 HCCNetwork.host[4].wlan[0].mac.dcf.channelAccess.pendingQueue flowOutgoingDataRate:vector ETV
attr interpolationmode linear
attr recordingmode vector
attr source throughput(flowPacketLength(demuxFlow(packetPulled)))
attr title "flow specific outgoing data rate"
attr unit bps
vector 307 HCCNetwork.host[4].wlan[0].mac.dcf.channelAccess.inProgressFrames queueingTime:vector ETV
attr interpolationmode none
attr recordingmode vector
attr source queueingTime(packetDequeued)
attr title "queueing times"
vector 308 HCCNetwork.host[4].wlan[0].mac.dcf.channelAccess.inProgressFrames queueLength:vector ETV
attr autoWarmupFilter false
attr interpolationmode sample-hold
attr recordingmode vector
attr source "warmup(count(packetEnqueued) - count(packetDequeued))"
attr title "queue length"
vector 309 HCCNetwork.host[4].wlan[0].mac.dcf.channelAccess.contention backoffPeriodGenerated:vector ETV
attr interpolationmode none
attr recordingmode vector
attr title "backoff periods"
vector 310 HCCNetwork.host[4].wlan[0].mac.dcf.channelAccess.contention backoffActive:vector ETV
attr autoWarmupFilter false
attr interpolationmode sample-hold
attr recordingmode vector
attr source warmup(count(backoffStarted)-count(backoffStopped))
attr title "backoff active"
vector 311 HCCNetwork.host[4].wlan[0].mac.dcf.channelAccess.contention stateChanged:vector ETV
attr enum IDLE,DEFER,IFS_AND_BACKOFF
attr interpolationmode none
attr recordingmode vector
[...]
2186	940693 11 0 0 0 0 1 0 0 0 0
2187	940704 11 0 0 0 0 1 0 0 0 0
2188	940715 26 137 137 0.041182014183 0.041182014183 1 1 1 1 1
2189	940741 267 137 3737 0.041182014183 4.541182014183 10 0 0 0 0
2194	941008 55 0 0 0 0 5 0 0 0 0
2195	941063 55 0 0 0 0 5 0 0 0 0
2206	941118 22 0 0 0 0 2 0 0 0 0
2208	941140 22 0 0 0 0 2 0 0 0 0
2209	941162 22 0 0 0 0 2 0 0 0 0
2211	941184 12 0 0 0 0 1 31 31 31 961
2228	941196 22 0 0 0 0 2 0 0 0 0
2242	941218 33 0 0 0 0 3 0 2 2 4
2243	941251 11 0 0 0 0 1 1 1 1 1
2245	941262 11 0 0 0 0 1 0 0 0 0
2251	941273 277 136 3736 0.039650573884 4.539650573884 10 44 44 440 19360
2256	941550 277 135 3735 0.039650573884 4.539650573884 10 24 24 240 5760
2258	941827 11 0 0 0 0 1 0 0 0 0
2259	941838 11 0 0 0 0 1 0 0 0 0
2260	941849 11 0 0 0 0 1 0 0 0 0
2261	941860 26 134 134 0.039650573884 0.039650573884 1 1 1 1 1
2262	941886 267 134 3734 0.039650573884 4.539650573884 10 0 0 0 0
2267	942153 55 0 0 0 0 5 0 0 0 0
2268	942208 55 0 0 0 0 5 0 0 0 0
2279	942263 22 0 0 0 0 2 0 0 0 0
2281	942285 22 0 0 0 0 2 0 0 0 0
2282	942307 22 0 0 0 0 2 0 0 0 0
2284	942329 12 0 0 0 0 1 31 31 31 961
2301	942341 22 0 0 0 0 2 0 0 0 0
2315	942363 33 0 0 0 0 3 0 2 2 4
2316	942396 11 0 0 0 0 1 1 1 1 1
2318	942407 11 0 0 0 0 1 0 0 0 0
2324	942418 267 190 3790 0.06754390772 4.56754390772 10 44 44 440 19360
2329	942685 267 189 3789 0.06754390772 4.56754390772 10 24 24 240 5760
2331	942952 11 0 0 0 0 1 0 0 0 0
2332	942963 11 0 0 0 0 1 0 0 0 0
2333	942974 11 0 0 0 0 1 0 0 0 0
2334	942985 25 188 188 0.06754390772 0.06754390772 1 1 1 1 1
2335	943010 257 188 3788 0.06754390772 4.56754390772 10 0 0 0 0
2340	943267 55 0 0 0 0 5 0 0 0 0
2341	943322 55 0 0 0 0 5 0 0 0 0
2352	943377 22 0 0 0 0 2 0 0 0 0
2354	943399 22 0 0 0 0 2 0 0 0 0
2355	943421 22 0 0 0 0 2 0 0 0 0
2357	943443 12 0 0 0 0 1 31 31 31 961
2374	943455 22 0 0 0 0 2 0 0 0 0
2388	943477 33 0 0 0 0 3 0 2 2 4
2389	943510 11 0 0 0 0 1 1 1 1 1
2391	943521 11 0 0 0 0 1 0 0 0 0
2397	943532 250 226 3426 0.088110320084 4.088110320084 9 44 44 396 17424
2402	943782 250 225 3425 0.088110320084 4.088110320084 9 24 24 216 5184
2404	944032 11 0 0 0 0 1 0 0 0 0
2405	944043 11 0 0 0 0 1 0 0 0 0
2406	944054 11 0 0 0 0 1 0 0 0 0
2407	944065 26 224 224 0.088110320084 0.088110320084 1 1 1 1 1
2408	944091 241 224 3424 0.088110320084 4.088110320084 9 0 0 0 0
2413	944332 55 0 0 0 0 5 0 0 0 0
2414	944387 55 0 0 0 0 5 0 0 0 0
2425	944442 22 0 0 0 0 2 0 0 0 0
2427	944464 22 0 0 0 0 2 0 0 0 0
2428	944486 22 0 0 0 0 2 0 0 0 0
2430	944508 12 0 0 0 0 1 31 31 31 961
2447	944520 22 0 0 0 0 2 0 0 0 0
2461	944542 33 0 0 0 0 3 0 2 2 4
2462	944575 11 0 0 0 0 1 1 1 1 1
2464	944586 11 0 0 0 0 1 0 0 0 0
2470	944597 277 115 3715 0.024979627505 4.524979627505 10 44 44 440 19360
2475	944874 277 114 3714 0.024979627505 4.524979627505 10 24 24 240 5760
2477	945151 11 0 0 0 0 1 0 0 0 0
2478	945162 11 0 0 0 0 1 0 0 0 0
2479	945173 11 0 0 0 0 1 0 0 0 0
2480	945184 26 113 113 0.024979627505 0.024979627505 1 1 1 1 1
2481	945210 267 113 3713 0.024979627505 4.524979627505 10 0 0 0 0
2486	945477 55 0 0 0 0 5 0 0 0 0
2487	945532 55 0 0 0 0 5 0 0 0 0
2498	945587 22 0 0 0 0 2 0 0 0 0
2500	945609 22 0 0 0 0 2 0 0 0 0
2501	945631 22 0 0 0 0 2 0 0 0 0
2503	945653 12 0 0 0 0 1 31 31 31 961
2520	945665 22 0 0 0 0 2 0 0 0 0
2534	945687 33 0 0 0 0 3 0 2 2 4
2535	945720 11 0 0 0 0 1 1 1 1 1
2537	945731 11 0 0 0 0 1 0 0 0 0
2543	945742 277 169 3769 0.058127287589 4.558127287589 10 44 44 440 19360
2548	946019 277 168 3768 0.058127287589 4.558127287589 10 24 24 240 5760
2550	946296 11 0 0 0 0 1 0 0 0 0
2551	946307 11 0 0 0 0 1 0 0 0 0
2552	946318 11 0 0 0 0 1 0 0 0 0
2553	946329 26 167 167 0.058127287589 0.058127287589 1 1 1 1 1
2554	946355 267 167 3767 0.058127287589 4.558127287589 10 0 0 0 0
2559	946622 55 0 0 0 0 5 0 0 0 0
2560	946677 55 0 0 0 0 5 0 0 0 0
2571	946732 22 0 0 0 0 2 0 0 0 0
2573	946754 22 0 0 0 0 2 0 0 0 0
2574	946776 22 0 0 0 0 2 0 0 0 0
2576	946798 12 0 0 0 0 1 31 31 31 961
2593	946810 22 0 0 0 0 2 0 0 0 0
2607	946832 33 0 0 0 0 3 0 2 2 4
2608	946865 11 0 0 0 0 1 1 1 1 1
2610	946876 11 0 0 0 0 1 0 0 0 0
2616	946887 277 127 3727 0.031321833213 4.531321833213 10 44 44 440 19360
2621	947164 277 126 3726 0.031321833213 4.531321833213 10 24 24 240 5760
2623	947441 11 0 0 0 0 1 0 0 0 0
2624	947452 11 0 0 0 0 1 0 0 0 0
2625	947463 11 0 0 0 0 1 0 0 0 0
2626	947474 26 125 125 0.031321833213 0.031321833213 1 1 1 1 1
2627	947500 267 125 3725 0.031321833213 4.531321833213 10 0 0 0 0
2632	947767 55 0 0 0 0 5 0 0 0 0
2633	947822 55 0 0 0 0 5 0 0 0 0
2644	947877 22 0 0 0 0 2 0 0 0 0
2646	947899 22 0 0 0 0 2 0 0 0 0
2647	947921 22 0 0 0 0 2 0 0 0 0
2649	947943 12 0 0 0 0 1 31 31 31 961
2666	947955 22 0 0 0 0 2 0 0 0 0
2680	947977 33 0 0 0 0 3 0 2 2 4
2681	948010 11 0 0 0 0 1 1 1 1 1
2683	948021 11 0 0 0 0 1 0 0 0 0
2689	948032 250 229 3429 0.088173535955 4.088173535955 9 44 44 396 17424
2694	948282 250 228 3428 0.088173535955 4.088173535955 9 24 24 216 5184
2696	948532 11 0 0 0 0 1 0 0 0 0
2697	948543 11 0 0 0 0 1 0 0 0 0
2698	948554 11 0 0 0 0 1 0 0 0 0
2699	948565 26 227 227 0.088173535955 0.088173535955 1 1 1 1 1
2700	948591 241 227 3427 0.088173535955 4.088173535955 9 0 0 0 0
2705	948832 55 0 0 0 0 5 0 0 0 0
2706	948887 55 0 0 0 0 5 0 0 0 0
2717	948942 22 0 0 0 0 2 0 0 0 0
2719	948964 22 0 0 0 0 2 0 0 0 0
2720	948986 22 0 0 0 0 2 0 0 0 0
2722	949008 12 0 0 0 0 1 31 31 31 961
2739	949020 22 0 0 0 0 2 0 0 0 0
2753	949042 33 0 0 0 0 3 0 2 2 4
2754	949075 11 0 0 0 0 1 1 1 1 1
2756	949086 11 0 0 0 0 1 0 0 0 0
2762	949097 250 247 3447 0.096541621862 4.096541621862 9 44 44 396 17424
2767	949347 250 246 3446 0.096541621862 4.096541621862 9 24 24 216 5184
2769	949597 11 0 0 0 0 1 0 0 0 0
2770	949608 11 0 0 0 0 1 0 0 0 0
2771	949619 11 0 0 0 0 1 0 0 0 0
2772	949630 26 245 245 0.096541621862 0.096541621862 1 1 1 1 1
2773	949656 241 245 3445 0.096541621862 4.096541621862 9 0 0 0 0
2778	949897 55 0 0 0 0 5 0 0 0 0
2779	949952 55 0 0 0 0 5 0 0 0 0
2790	950007 22 0 0 0 0 2 0 0 0 0
2792	950029 22 0 0 0 0 2 0 0 0 0
2793	950051 22 0 0 0 0 2 0 0 0 0
2795	950073 12 0 0 0 0 1 31 31 31 961
2812	950085 22 0 0 0 0 2 0 0 0 0
2826	950107 33 0 0 0 0 3 0 2 2 4
2827	950140 11 0 0 0 0 1 1 1 1 1
2829	950151 11 0 0 0 0 1 0 0 0 0
2835	950162 277 199 3799 0.069253159151 4.569253159151 10 44 44 440 19360
2840	950439 277 198 3798 0.069253159151 4.569253159151 10 24 24 240 5760
2842	950716 11 0 0 0 0 1 0 0 0 0
2843	950727 11 0 0 0 0 1 0 0 0 0
2844	950738 11 0 0 0 0 1 0 0 0 0
2845	950749 26 197 197 0.069253159151 0.069253159151 1 1 1 1 1
2846	950775 267 197 3797 0.069253159151 4.569253159151 10 0 0 0 0
2851	951042 55 0 0 0 0 5 0 0 0 0
2852	951097 55 0 0 0 0 5 0 0 0 0
2863	951152 22 0 0 0 0 2 0 0 0 0
2865	951174 22 0 0 0 0 2 0 0 0 0
2866	951196 22 0 0 0 0 2 0 0 0 0
2868	951218 12 0 0 0 0 1 31 31 31 961
2885	951230 22 0 0 0 0 2 0 0 0 0
2899	951252 33 0 0 0 0 3 0 2 2 4
2900	951285 11 0 0 0 0 1 1 1 1 1
2902	951296 11 0 0 0 0 1 0 0 0 0
2908	951307 277 172 3772 0.058846508339 4.558846508339 10 44 44 440 19360
2913	951584 277 171 3771 0.058846508339 4.558846508339 10 24 24 240 5760
2915	951861 11 0 0 0 0 1 0 0 0 0
2916	951872 11 0 0 0 0 1 0 0 0 0
2917	951883 11 0 0 0 0 1 0 0 0 0
2918	951894 26 170 170 0.058846508339 0.058846508339 1 1 1 1 1
2919	951920 267 170 3770 0.058846508339 4.558846508339 10 0 0 0 0
2924	952187 55 0 0 0 0 5 0 0 0 0
2925	952242 55 0 0 0 0 5 0 0 0 0
2936	952297 22 0 0 0 0 2 0 0 0 0
2938	952319 22 0 0 0 0 2 0 0 0 0
2939	952341 22 0 0 0 0 2 0 0 0 0
2941	952363 12 0 0 0 0 1 31 31 31 961
2958	952375 22 0 0 0 0 2 0 0 0 0
2972	952397 33 0 0 0 0 3 0 2 2 4
2973	952430 11 0 0 0 0 1 1 1 1 1
2975	952441 11 0 0 0 0 1 0 0 0 0
2981	952452 250 208 3408 0.072525428142 4.072525428142 9 44 44 396 17424
2986	952702 250 207 3407 0.072525428142 4.072525428142 9 24 24 216 5184
2988	952952 11 0 0 0 0 1 0 0 0 0
2989	952963 11 0 0 0 0 1 0 0 0 0
2990	952974 11 0 0 0 0 1 0 0 0 0
2991	952985 26 206 206 0.072525428142 0.072525428142 1 1 1 1 1
2992	953011 241 206 3406 0.072525428142 4.072525428142 9 0 0 0 0
2997	953252 55 0 0 0 0 5 0 0 0 0
2998	953307 55 0 0 0 0 5 0 0 0 0
3009	953362 22 0 0 0 0 2 0 0 0 0
3011	953384 22 0 0 0 0 2 0 0 0 0
3012	953406 22 0 0 0 0 2 0 0 0 0
3014	953428 12 0 0 0 0 1 31 31 31 961
3031	953440 22 0 0 0 0 2 0 0 0 0
3045	953462 33 0 0 0 0 3 0 2 2 4
3046	953495 11 0 0 0 0 1 1 1 1 1
3048	953506 11 0 0 0 0 1 0 0 0 0
3054	953517 277 187 3787 0.065966841416 4.565966841416 10 44 44 440 19360
3059	953794 277 186 3786 0.065966841416 4.565966841416 10 24 24 240 5760
3061	954071 11 0 0 0 0 1 0 0 0 0
3062	954082 11 0 0 0 0 1 0 0 0 0
3063	954093 11 0 0 0 0 1 0 0 0 0
3064	954104 26 185 185 0.065966841416 0.065966841416 1 1 1 1 1
3065	954130 267 185 3785 0.065966841416 4.565966841416 10 0 0 0 0
3070	954397 55 0 0 0 0 5 0 0 0 0
3071	954452 55 0 0 0 0 5 0 0 0 0
3082	954507 22 0 0 0 0 2 0 0 0 0
3084	954529 22 0 0 0 0 2 0 0 0 0
3085	954551 22 0 0 0 0 2 0 0 0 0
3087	954573 12 0 0 0 0 1 31 31 31 961
3104	954585 22 0 0 0 0 2 0 0 0 0
3118	954607 33 0 0 0 0 3 0 2 2 4
3119	954640 11 0 0 0 0 1 1 1 1 1
3121	954651 11 0 0 0 0 1 0 0 0 0
3127	954662 277 154 3754 0.050132438308 4.550132438308 10 44 44 440 19360
3132	954939 277 153 3753 0.050132438308 4.550132438308 10 24 24 240 5760
3134	955216 11 0 0 0 0 1 0 0 0 0
3135	955227 11 0 0 0 0 1 0 0 0 0
3136	955238 11 0 0 0 0 1 0 0 0 0
3137	955249 26 152 152 0.050132438308 0.050132438308 1 1 1 1 1
3138	955275 267 152 3752 0.050132438308 4.550132438308 10 0 0 0 0
3143	955542 55 0 0 0 0 5 0 0 0 0
3144	955597 55 0 0 0 0 5 0 0 0 0
3155	955652 22 0 0 0 0 2 0 0 0 0
3157	955674 22 0 0 0 0 2 0 0 0 0
3158	955696 22 0 0 0 0 2 0 0 0 0
3160	955718 12 0 0 0 0 1 31 31 31 961
3177	955730 22 0 0 0 0 2 0 0 0 0
3191	955752 33 0 0 0 0 3 0 2 2 4
3192	955785 11 0 0 0 0 1 1 1 1 1
3194	955796 11 0 0 0 0 1 0 0 0 0
3200	955807 277 157 3757 0.053320625168 4.553320625168 10 44 44 440 19360
3205	956084 277 156 3756 0.053320625168 4.553320625168 10 24 24 240 5760
3207	956361 11 0 0 0 0 1 0 0 0 0
3208	956372 11 0 0 0 0 1 0 0 0 0
3209	956383 11 0 0 0 0 1 0 0 0 0
3210	956394 26 155 155 0.053320625168 0.053320625168 1 1 1 1 1
3211	956420 267 155 3755 0.053320625168 4.553320625168 10 0 0 0 0
3216	956687 55 0 0 0 0 5 0 0 0 0
3217	956742 55 0 0 0 0 5 0 0 0 0
3228	956797 22 0 0 0 0 2 0 0 0 0
3230	956819 22 0 0 0 0 2 0 0 0 0
3231	956841 22 0 0 0 0 2 0 0 0 0
3233	956863 12 0 0 0 0 1 31 31 31 961
3250	956875 22 0 0 0 0 2 0 0 0 0
3264	956897 33 0 0 0 0 3 0 2 2 4
3265	956930 11 0 0 0 0 1 1 1 1 1
3267	956941 11 0 0 0 0 1 0 0 0 0
3273	956952 250 241 3441 0.095608363976 4.095608363976 9 44 44 396 17424
3278	957202 250 240 3440 0.095608363976 4.095608363976 9 24 24 216 5184
3280	957452 11 0 0 0 0 1 0 0 0 0
3281	957463 11 0 0 0 0 1 0 0 0 0
3282	957474 11 0 0 0 0 1 0 0 0 0
3283	957485 26 239 239 0.095608363976 0.095608363976 1 1 1 1 1
3284	957511 241 239 3439 0.095608363976 4.095608363976 9 0 0 0 0
3289	957752 55 0 0 0 0 5 0 0 0 0
3290	957807 55 0 0 0 0 5 0 0 0 0
3301	957862 22 0 0 0 0 2 0 0 0 0
3303	957884 22 0 0 0 0 2 0 0 0 0
3304	957906 22 0 0 0 0 2 0 0 0 0
3306	957928 12 0 0 0 0 1 31 31 31 961
3323	957940 22 0 0 0 0 2 0 0 0 0
3337	957962 33 0 0 0 0 3 0 2 2 4
3338	957995 11 0 0 0 0 1 1 1 1 1
3340	958006 11 0 0 0 0 1 0 0 0 0
3346	958017 277 109 3709 0.023053302313 4.523053302313 10 44 44 440 19360
3351	958294 277 108 3708 0.023053302313 4.523053302313 10 24 24 240 5760
3353	958571 11 0 0 0 0 1 0 0 0 0
3354	958582 11 0 0 0 0 1 0 0 0 0
3355	958593 11 0 0 0 0 1 0 0 0 0
3356	958604 26 107 107 0.023053302313 0.023053302313 1 1 1 1 1
3357	958630 267 107 3707 0.023053302313 4.523053302313 10 0 0 0 0
3362	958897 55 0 0 0 0 5 0 0 0 0
3363	958952 55 0 0 0 0 5 0 0 0 0
3374	959007 22 0 0 0 0 2 0 0 0 0
3376	959029 22 0 0 0 0 2 0 0 0 0
3377	959051 22 0 0 0 0 2 0 0 0 0
3379	959073 12 0 0 0 0 1 31 31 31 961
3396	959085 22 0 0 0 0 2 0 0 0 0
3410	959107 33 0 0 0 0 3 0 2 2 4
3411	959140 11 0 0 0 0 1 1 1 1 1
3413	959151 11 0 0 0 0 1 0 0 0 0
3419	959162 277 184 3784 0.064399019652 4.564399019652 10 44 44 440 19360
3424	959439 277 183 3783 0.064399019652 4.564399019652 10 24 24 240 5760
3426	959716 11 0 0 0 0 1 0 0 0 0
3427	959727 11 0 0 0 0 1 0 0 0 0
3428	959738 11 0 0 0 0 1 0 0 0 0
3429	959749 26 182 182 0.064399019652 0.064399019652 1 1 1 1 1
3430	959775 267 182 3782 0.064399019652 4.564399019652 10 0 0 0 0
3435	960042 55 0 0 0 0 5 0 0 0 0
3436	960097 55 0 0 0 0 5 0 0 0 0
3447	960152 22 0 0 0 0 2 0 0 0 0
3449	960174 22 0 0 0 0 2 0 0 0 0
3450	960196 22 0 0 0 0 2 0 0 0 0
3452	960218 12 0 0 0 0 1 31 31 31 961
3469	960230 22 0 0 0 0 2 0 0 0 0
3483	960252 33 0 0 0 0 3 0 2 2 4
3484	960285 11 0 0 0 0 1 1 1 1 1
3486	960296 11 0 0 0 0 1 0 0 0 0
3492	960307 277 130 3730 0.039486929215 4.539486929215 10 44 44 440 19360
3497	960584 277 129 3729 0.039486929215 4.539486929215 10 24 24 240 5760
3499	960861 11 0 0 0 0 1 0 0 0 0
3500	960872 11 0 0 0 0 1 0 0 0 0
3501	960883 11 0 0 0 0 1 0 0 0 0
3502	960894 26 128 128 0.039486929215 0.039486929215 1 1 1 1 1
3503	960920 267 128 3728 0.039486929215 4.539486929215 10 0 0 0 0
3508	961187 55 0 0 0 0 5 0 0 0 0
3509	961242 55 0 0 0 0 5 0 0 0 0
3520	961297 22 0 0 0 0 2 0 0 0 0
3522	961319 22 0 0 0 0 2 0 0 0 0
3523	961341 22 0 0 0 0 2 0 0 0 0
3525	961363 12 0 0 0 0 1 31 31 31 961
3542	961375 22 0 0 0 0 2 0 0 0 0
3556	961397 33 0 0 0 0 3 0 2 2 4
3557	961430 11 0 0 0 0 1 1 1 1 1
3559	961441 11 0 0 0 0 1 0 0 0 0
3565	961452 277 142 3742 0.042385504395 4.542385504395 10 44 44 440 19360
3570	961729 277 141 3741 0.042385504395 4.542385504395 10 24 24 240 5760
3572	962006 11 0 0 0 0 1 0 0 0 0
3573	962017 11 0 0 0 0 1 0 0 0 0
3574	962028 11 0 0 0 0 1 0 0 0 0
3575	962039 26 140 140 0.042385504395 0.042385504395 1 1 1 1 1
3576	962065 267 140 3740 0.042385504395 4.542385504395 10 0 0 0 0
3581	962332 55 0 0 0 0 5 0 0 0 0
3582	962387 55 0 0 0 0 5 0 0 0 0
3593	962442 22 0 0 0 0 2 0 0 0 0
3595	962464 22 0 0 0 0 2 0 0 0 0
3596	962486 22 0 0 0 0 2 0 0 0 0
3598	962508 12 0 0 0 0 1 31 31 31 961
3615	962520 22 0 0 0 0 2 0 0 0 0
3629	962542 33 0 0 0 0 3 0 2 2 4
3630	962575 11 0 0 0 0 1 1 1 1 1
3632	962586 11 0 0 0 0 1 0 0 0 0
3638	962597 257 178 3778 0.0618808561 4.5618808561 10 44 44 440 19360
3643	962854 257 177 3777 0.0618808561 4.5618808561 10 24 24 240 5760
3645	963111 11 0 0 0 0 1 0 0 0 0
3646	963122 11 0 0 0 0 1 0 0 0 0
3647	963133 11 0 0 0 0 1 0 0 0 0
3648	963144 24 176 176 0.0618808561 0.0618808561 1 1 1 1 1
3649	963168 247 176 3776 0.0618808561 4.5618808561 10 0 0 0 0
8	963415 601 3805 3805 0.1 4.572490189546 46 0 0 0 0
10	964016 647 3805 3805 0.1 4.572490189546 46 0 0 0 0
81	964663 647 3805 3805 0.1 4.572490189546 46 0 0 0 0
83	965310 647 3805 3805 0.1 4.572490189546 46 0 0 0 0
154	965957 693 3805 3805 0.1 4.572490189546 46 0 0 0 0
156	966650 693 3805 3805 0.1 4.572490189546 46 0 0 0 0
227	967343 693 3805 3805 0.1 4.572490189546 46 0 0 0 0
229	968036 693 3805 3805 0.1 4.572490189546 46 0 0 0 0
300	968729 693 3805 3805 0.1 4.572490189546 46 0 0 0 0
302	969422 693 3805 3805 0.1 4.572490189546 46 0 0 0 0
373	970115 693 3805 3805 0.1 4.572490189546 46 0 0 0 0
375	970808 693 3805 3805 0.1 4.572490189546 46 0 0 0 0
446	971501 693 3805 3805 0.1 4.572490189546 46 0 0 0 0
448	972194 693 3805 3805 0.1 4.572490189546 46 0 0 0 0
519	972887 693 3805 3805 0.1 4.572490189546 46 0 0 0 0
521	973580 693 3805 3805 0.1 4.572490189546 46 0 0 0 0
592	974273 693 3805 3805 0.1 4.572490189546 46 0 0 0 0
594	974966 693 3805 3805 0.1 4.572490189546 46 0 0 0 0
665	975659 693 3805 3805 0.1 4.572490189546 46 0 0 0 0
667	976352 693 3805 3805 0.1 4.572490189546 46 0 0 0 0
738	977045 693 3805 3805 0.1 4.572490189546 46 0 0 0 0
740	977738 693 3805 3805 0.1 4.572490189546 46 0 0 0 0
811	978431 693 3805 3805 0.1 4.572490189546 46 0 0 0 0
813	979124 693 3805 3805 0.1 4.572490189546 46 0 0 0 0
884	979817 693 3805 3805 0.1 4.572490189546 46 0 0 0 0
886	980510 693 3805 3805 0.1 4.572490189546 46 0 0 0 0
957	981203 693 3805 3805 0.1 4.572490189546 46 0 0 0 0
959	981896 693 3805 3805 0.1 4.572490189546 46 0 0 0 0
1030	982589 739 3805 3805 0.1 4.572490189546 46 0 0 0 0
1032	983328 739 3805 3805 0.1 4.572490189546 46 0 0 0 0
1103	984067 739 3805 3805 0.1 4.572490189546 46 0 0 0 0
1105	984806 739 3805 3805 0.1 4.572490189546 46 0 0 0 0
1176	985545 739 3805 3805 0.1 4.572490189546 46 0 0 0 0
1178	986284 739 3805 3805 0.1 4.572490189546 46 0 0 0 0
1249	987023 739 3805 3805 0.1 4.572490189546 46 0 0 0 0
1251	987762 739 3805 3805 0.1 4.572490189546 46 0 0 0 0
1322	988501 739 3805 3805 0.1 4.572490189546 46 0 0 0 0
1324	989240 739 3805 3805 0.1 4.572490189546 46 0 0 0 0
1395	989979 739 3805 3805 0.1 4.572490189546 46 0 0 0 0
1397	990718 739 3805 3805 0.1 4.572490189546 46 0 0 0 0
1468	991457 739 3805 3805 0.1 4.572490189546 46 0 0 0 0
1470	992196 739 3805 3805 0.1 4.572490189546 46 0 0 0 0
1541	992935 739 3805 3805 0.1 4.572490189546 46 0 0 0 0
1543	993674 739 3805 3805 0.1 4.572490189546 46 0 0 0 0
1614	994413 739 3805 3805 0.1 4.572490189546 46 0 0 0 0
1616	995152 739 3805 3805 0.1 4.572490189546 46 0 0 0 0
1687	995891 739 3805 3805 0.1 4.572490189546 46 0 0 0 0
1689	996630 739 3805 3805 0.1 4.572490189546 46 0 0 0 0
1760	997369 739 3805 3805 0.1 4.572490189546 46 0 0 0 0
1762	998108 739 3805 3805 0.1 4.572490189546 46 0 0 0 0
1833	998847 739 3805 3805 0.1 4.572490189546 46 0 0 0 0
1835	999586 739 3805 3805 0.1 4.572490189546 46 0 0 0 0
1906	1000325 739 3805 3805 0.1 4.572490189546 46 0 0 0 0
1908	1001064 739 3805 3805 0.1 4.572490189546 46 0 0 0 0
1979	1001803 739 3805 3805 0.1 4.572490189546 46 0 0 0 0
1981	1002542 739 3805 3805 0.1 4.572490189546 46 0 0 0 0
2052	1003281 739 3805 3805 0.1 4.572490189546 46 0 0 0 0
2054	1004020 739 3805 3805 0.1 4.572490189546 46 0 0 0 0
2125	1004759 739 3805 3805 0.1 4.572490189546 46 0 0 0 0
2127	1005498 739 3805 3805 0.1 4.572490189546 46 0 0 0 0
2198	1006237 739 3805 3805 0.1 4.572490189546 46 0 0 0 0
2200	1006976 739 3805 3805 0.1 4.572490189546 46 0 0 0 0
2271	1007715 739 3805 3805 0.1 4.572490189546 46 0 0 0 0
2273	1008454 739 3805 3805 0.1 4.572490189546 46 0 0 0 0
2344	1009193 739 3805 3805 0.1 4.572490189546 46 0 0 0 0
2346	1009932 739 3805 3805 0.1 4.572490189546 46 0 0 0 0
2417	1010671 739 3805 3805 0.1 4.572490189546 46 0 0 0 0
2419	1011410 739 3805 3805 0.1 4.572490189546 46 0 0 0 0
2490	1012149 739 3805 3805 0.1 4.572490189546 46 0 0 0 0
2492	1012888 739 3805 3805 0.1 4.572490189546 46 0 0 0 0
2563	1013627 739 3805 3805 0.1 4.572490189546 46 0 0 0 0
2565	1014366 739 3805 3805 0.1 4.572490189546 46 0 0 0 0
2636	1015105 739 3805 3805 0.1 4.572490189546 46 0 0 0 0
2638	1015844 739 3805 3805 0.1 4.572490189546 46 0 0 0 0
2709	1016583 739 3805 3805 0.1 4.572490189546 46 0 0 0 0
2711	1017322 739 3805 3805 0.1 4.572490189546 46 0 0 0 0
2782	1018061 739 3805 3805 0.1 4.572490189546 46 0 0 0 0
2784	1018800 739 3805 3805 0.1 4.572490189546 46 0 0 0 0
2855	1019539 739 3805 3805 0.1 4.572490189546 46 0 0 0 0
2857	1020278 739 3805 3805 0.1 4.572490189546 46 0 0 0 0
2928	1021017 739 3805 3805 0.1 4.572490189546 46 0 0 0 0
2930	1021756 739 3805 3805 0.1 4.572490189546 46 0 0 0 0
3001	1022495 739 3805 3805 0.1 4.572490189546 46 0 0 0 0
3003	1023234 739 3805 3805 0.1 4.572490189546 46 0 0 0 0
3074	1023973 739 3805 3805 0.1 4.572490189546 46 0 0 0 0
3076	1024712 739 3805 3805 0.1 4.572490189546 46 0 0 0 0
3147	1025451 739 3805 3805 0.1 4.572490189546 46 0 0 0 0
3149	1026190 739 3805 3805 0.1 4.572490189546 46 0 0 0 0
3220	1026929 739 3805 3805 0.1 4.572490189546 46 0 0 0 0
3222	1027668 739 3805 3805 0.1 4.572490189546 46 0 0 0 0
3293	1028407 739 3805 3805 0.1 4.572490189546 46 0 0 0 0
3295	1029146 739 3805 3805 0.1 4.572490189546 46 0 0 0 0
3366	1029885 739 3805 3805 0.1 4.572490189546 46 0 0 0 0
3368	1030624 739 3805 3805 0.1 4.572490189546 46 0 0 0 0
3439	1031363 739 3805 3805 0.1 4.572490189546 46 0 0 0 0
3441	1032102 739 3805 3805 0.1 4.572490189546 46 0 0 0 0
3512	1032841 739 3805 3805 0.1 4.572490189546 46 0 0 0 0
3514	1033580 739 3805 3805 0.1 4.572490189546 46 0 0 0 0
3585	1034319 739 3805 3805 0.1 4.572490189546 46 0 0 0 0
3587	1035058 739 3805 3805 0.1 4.572490189546 46 0 0 0 0

